@<TRIPOS>MOLECULE
25174101
   55    58     0     0     0
SMALL
NO_CHARGES

@<TRIPOS>ATOM
      1 O1         -5.4030   -6.5210    0.1700 O.2       1 UNK         0.0000
      2 N1         -8.4250   -5.8230   -1.0730 N.pl3     1 UNK         0.0000
      3 N2         -9.1300   -6.7040   -1.9010 N.2       1 UNK         0.0000
      4 N3         -7.3380   -5.9960    1.1250 N.am      1 UNK         0.0000
      5 N4         -5.2950   -5.5460    2.1620 N.am      1 UNK         0.0000
      6 N5         -9.8060   -1.1980   -1.1700 N.pl3     1 UNK         0.0000
      7 C1         -9.8560   -9.1040   -1.8580 C.3       1 UNK         0.0000
      8 C2         -9.1870   -7.8710   -1.3090 C.2       1 UNK         0.0000
      9 C3        -11.2460   -8.7390   -2.3830 C.3       1 UNK         0.0000
     10 C4         -9.0140   -9.6770   -2.9980 C.3       1 UNK         0.0000
     11 C5         -9.9890  -10.1490   -0.7480 C.3       1 UNK         0.0000
     12 C6         -8.5170   -7.7800   -0.0860 C.2       1 UNK         0.0000
     13 C7         -8.0580   -6.5060    0.0460 C.2       1 UNK         0.0000
     14 C8         -8.1460   -4.4770   -1.3470 C.ar      1 UNK         0.0000
     15 C9         -9.1150   -3.5080   -1.1270 C.ar      1 UNK         0.0000
     16 C10        -6.9020   -4.1110   -1.8440 C.ar      1 UNK         0.0000
     17 C11        -5.9900   -6.0380    1.1190 C.2       1 UNK         0.0000
     18 C12        -3.9010   -5.4820    2.1050 C.ar      1 UNK         0.0000
     19 C13        -3.1200   -6.0190    3.1500 C.ar      1 UNK         0.0000
     20 C14        -8.8340   -2.1770   -1.3950 C.ar      1 UNK         0.0000
     21 C15        -1.7080   -5.9420    3.0710 C.ar      1 UNK         0.0000
     22 C16        -6.6260   -2.7850   -2.1150 C.ar      1 UNK         0.0000
     23 C17        -7.5870   -1.8170   -1.8930 C.ar      1 UNK         0.0000
     24 C18        -3.2770   -4.8930    1.0270 C.ar      1 UNK         0.0000
     25 C19        -3.7160   -6.6270    4.2650 C.ar      1 UNK         0.0000
     26 C20        -1.1100   -5.3320    1.9550 C.ar      1 UNK         0.0000
     27 C21        -1.8880   -4.8220    0.9610 C.ar      1 UNK         0.0000
     28 C22        -0.9300   -6.4770    4.1120 C.ar      1 UNK         0.0000
     29 C23        -2.9320   -7.1360    5.2560 C.ar      1 UNK         0.0000
     30 C24        -1.5420   -7.0600    5.1790 C.ar      1 UNK         0.0000
     31 H1        -11.9730   -8.8220   -1.5750 H         1 UNK         0.0000
     32 H2        -11.2350   -7.7140   -2.7580 H         1 UNK         0.0000
     33 H3        -11.5200   -9.4170   -3.1900 H         1 UNK         0.0000
     34 H4         -8.6720   -8.8660   -3.6420 H         1 UNK         0.0000
     35 H5         -8.1520  -10.2020   -2.5860 H         1 UNK         0.0000
     36 H6         -9.6170  -10.3730   -3.5810 H         1 UNK         0.0000
     37 H7         -9.6070   -9.7380    0.1870 H         1 UNK         0.0000
     38 H8        -11.0390  -10.4160   -0.6240 H         1 UNK         0.0000
     39 H9         -9.4180  -11.0370   -1.0140 H         1 UNK         0.0000
     40 H10        -8.3880   -8.5800    0.6290 H         1 UNK         0.0000
     41 H11        -7.8070   -5.6100    1.8830 H         1 UNK         0.0000
     42 H12       -10.0850   -3.7910   -0.7440 H         1 UNK         0.0000
     43 H13        -6.1490   -4.8660   -2.0200 H         1 UNK         0.0000
     44 H14        -5.7620   -5.2350    2.9530 H         1 UNK         0.0000
     45 H15        -5.6580   -2.5030   -2.5020 H         1 UNK         0.0000
     46 H16        -7.3690   -0.7810   -2.1050 H         1 UNK         0.0000
     47 H17        -3.8710   -4.4800    0.2250 H         1 UNK         0.0000
     48 H18        -4.7920   -6.6930    4.3380 H         1 UNK         0.0000
     49 H19        -0.0340   -5.2660    1.8880 H         1 UNK         0.0000
     50 H20        -1.4200   -4.3550    0.1070 H         1 UNK         0.0000
     51 H21         0.1480   -6.4270    4.0660 H         1 UNK         0.0000
     52 H22        -3.3930   -7.6040    6.1120 H         1 UNK         0.0000
     53 H23        -0.9420   -7.4710    5.9780 H         1 UNK         0.0000
     54 H24       -10.3920   -0.9220   -1.8930 H         1 UNK         0.0000
     55 H25        -9.8950   -0.7960   -0.2920 H         1 UNK         0.0000
@<TRIPOS>BOND
     1    1   17 2
     2    2    3 1
     3    2   13 1
     4    2   14 1
     5    3    8 2
     6    4   13 1
     7    4   17 am
     8    4   41 1
     9    5   17 am
    10    5   18 1
    11    5   44 1
    12    6   20 1
    13    6   54 1
    14    6   55 1
    15    7    8 1
    16    7    9 1
    17    7   10 1
    18    7   11 1
    19    8   12 1
    20    9   31 1
    21    9   32 1
    22    9   33 1
    23   10   34 1
    24   10   35 1
    25   10   36 1
    26   11   37 1
    27   11   38 1
    28   11   39 1
    29   12   13 2
    30   12   40 1
    31   14   15 ar
    32   14   16 ar
    33   15   20 ar
    34   15   42 1
    35   16   22 ar
    36   16   43 1
    37   18   19 ar
    38   18   24 ar
    39   19   21 ar
    40   19   25 ar
    41   20   23 ar
    42   21   26 ar
    43   21   28 ar
    44   22   23 ar
    45   22   45 1
    46   23   46 1
    47   24   27 ar
    48   24   47 1
    49   25   29 ar
    50   25   48 1
    51   26   27 ar
    52   26   49 1
    53   27   50 1
    54   28   30 ar
    55   28   51 1
    56   29   30 ar
    57   29   52 1
    58   30   53 1
