@<TRIPOS>MOLECULE
25174101
   55    58     0     0     0
SMALL
NO_CHARGES

@<TRIPOS>ATOM
      1 O1          3.4600   -2.8820   -2.1600 O.2       1 UNK         0.0000
      2 N1          3.3170   -5.4150    0.0880 N.pl3     1 UNK         0.0000
      3 N2          2.3540   -5.4360    1.1050 N.2       1 UNK         0.0000
      4 N3          3.2660   -5.0870   -2.3480 N.am      1 UNK         0.0000
      5 N4          4.2120   -3.7900   -4.0430 N.am      1 UNK         0.0000
      6 N5          7.6030   -3.7960    1.6090 N.pl3     1 UNK         0.0000
      7 C1         -0.1310   -5.1700    1.3070 C.3       1 UNK         0.0000
      8 C2          1.1790   -5.2270    0.5660 C.2       1 UNK         0.0000
      9 C3          0.0940   -5.5600    2.7690 C.3       1 UNK         0.0000
     10 C4         -0.6960   -3.7500    1.2380 C.3       1 UNK         0.0000
     11 C5         -1.1220   -6.1440    0.6660 C.3       1 UNK         0.0000
     12 C6          1.3480   -5.0580   -0.8110 C.2       1 UNK         0.0000
     13 C7          2.6740   -5.1840   -1.0890 C.2       1 UNK         0.0000
     14 C8          4.6960   -5.5990    0.2540 C.ar      1 UNK         0.0000
     15 C9          5.4640   -4.6050    0.8440 C.ar      1 UNK         0.0000
     16 C10         5.2980   -6.7740   -0.1790 C.ar      1 UNK         0.0000
     17 C11         3.6400   -3.8830   -2.8270 C.2       1 UNK         0.0000
     18 C12         4.7050   -2.5620   -4.4900 C.ar      1 UNK         0.0000
     19 C13         6.0920   -2.3030   -4.4760 C.ar      1 UNK         0.0000
     20 C14         6.8280   -4.7930    1.0100 C.ar      1 UNK         0.0000
     21 C15         6.5690   -1.0510   -4.9340 C.ar      1 UNK         0.0000
     22 C16         6.6580   -6.9560   -0.0170 C.ar      1 UNK         0.0000
     23 C17         7.4240   -5.9710    0.5760 C.ar      1 UNK         0.0000
     24 C18         3.8400   -1.5930   -4.9510 C.ar      1 UNK         0.0000
     25 C19         7.0070   -3.2620   -4.0150 C.ar      1 UNK         0.0000
     26 C20         5.6540   -0.0890   -5.3950 C.ar      1 UNK         0.0000
     27 C21         4.3210   -0.3660   -5.3980 C.ar      1 UNK         0.0000
     28 C22         7.9500   -0.7930   -4.9190 C.ar      1 UNK         0.0000
     29 C23         8.3390   -2.9800   -4.0150 C.ar      1 UNK         0.0000
     30 C24         8.8090   -1.7480   -4.4660 C.ar      1 UNK         0.0000
     31 H1          0.8010   -4.8660    3.2250 H         1 UNK         0.0000
     32 H2         -0.8550   -5.5170    3.3070 H         1 UNK         0.0000
     33 H3          0.4930   -6.5720    2.8190 H         1 UNK         0.0000
     34 H4         -1.4770   -3.6330    1.9900 H         1 UNK         0.0000
     35 H5          0.1010   -3.0320    1.4260 H         1 UNK         0.0000
     36 H6         -1.1160   -3.5740    0.2470 H         1 UNK         0.0000
     37 H7         -1.1500   -5.9780   -0.4110 H         1 UNK         0.0000
     38 H8         -0.8060   -7.1690    0.8670 H         1 UNK         0.0000
     39 H9         -2.1150   -5.9810    1.0850 H         1 UNK         0.0000
     40 H10         0.5630   -4.8650   -1.5290 H         1 UNK         0.0000
     41 H11         3.4100   -5.8860   -2.8790 H         1 UNK         0.0000
     42 H12         4.9980   -3.6890    1.1770 H         1 UNK         0.0000
     43 H13         4.7020   -7.5450   -0.6430 H         1 UNK         0.0000
     44 H14         4.2810   -4.5750   -4.6080 H         1 UNK         0.0000
     45 H15         7.1240   -7.8700   -0.3530 H         1 UNK         0.0000
     46 H16         8.4870   -6.1160    0.7010 H         1 UNK         0.0000
     47 H17         2.7780   -1.7870   -4.9630 H         1 UNK         0.0000
     48 H18         6.6560   -4.2220   -3.6630 H         1 UNK         0.0000
     49 H19         6.0080    0.8710   -5.7430 H         1 UNK         0.0000
     50 H20         3.6250    0.3800   -5.7530 H         1 UNK         0.0000
     51 H21         8.3290    0.1570   -5.2660 H         1 UNK         0.0000
     52 H22         9.0400   -3.7200   -3.6610 H         1 UNK         0.0000
     53 H23         9.8700   -1.5470   -4.4550 H         1 UNK         0.0000
     54 H24         8.5520   -3.7400    1.4160 H         1 UNK         0.0000
     55 H25         7.1920   -3.1610    2.2160 H         1 UNK         0.0000
@<TRIPOS>BOND
     1    1   17 2
     2    2    3 1
     3    2   13 1
     4    2   14 1
     5    3    8 2
     6    4   13 1
     7    4   17 am
     8    4   41 1
     9    5   17 am
    10    5   18 1
    11    5   44 1
    12    6   20 1
    13    6   54 1
    14    6   55 1
    15    7    8 1
    16    7    9 1
    17    7   10 1
    18    7   11 1
    19    8   12 1
    20    9   31 1
    21    9   32 1
    22    9   33 1
    23   10   34 1
    24   10   35 1
    25   10   36 1
    26   11   37 1
    27   11   38 1
    28   11   39 1
    29   12   13 2
    30   12   40 1
    31   14   15 ar
    32   14   16 ar
    33   15   20 ar
    34   15   42 1
    35   16   22 ar
    36   16   43 1
    37   18   19 ar
    38   18   24 ar
    39   19   21 ar
    40   19   25 ar
    41   20   23 ar
    42   21   26 ar
    43   21   28 ar
    44   22   23 ar
    45   22   45 1
    46   23   46 1
    47   24   27 ar
    48   24   47 1
    49   25   29 ar
    50   25   48 1
    51   26   27 ar
    52   26   49 1
    53   27   50 1
    54   28   30 ar
    55   28   51 1
    56   29   30 ar
    57   29   52 1
    58   30   53 1
