@<TRIPOS>MOLECULE
25174101
   55    58     0     0     0
SMALL
NO_CHARGES

@<TRIPOS>ATOM
      1 O1         -2.0180   -5.4030   -0.5200 O.2       1 UNK         0.0000
      2 N1          0.3170   -5.3680    2.0360 N.pl3     1 UNK         0.0000
      3 N2          1.6610   -5.6270    1.7420 N.2       1 UNK         0.0000
      4 N3         -1.4360   -3.9510    1.0560 N.am      1 UNK         0.0000
      5 N4         -3.5810   -3.9680    0.1360 N.am      1 UNK         0.0000
      6 N5          0.0940   -7.1010    6.5370 N.pl3     1 UNK         0.0000
      7 C1          3.3560   -4.9040    0.0420 C.3       1 UNK         0.0000
      8 C2          1.9980   -4.9200    0.6920 C.2       1 UNK         0.0000
      9 C3          3.3560   -5.8480   -1.1620 C.3       1 UNK         0.0000
     10 C4          3.6830   -3.4840   -0.4240 C.3       1 UNK         0.0000
     11 C5          4.4100   -5.3650    1.0510 C.3       1 UNK         0.0000
     12 C6          0.8820   -4.1890    0.2750 C.2       1 UNK         0.0000
     13 C7         -0.1450   -4.4740    1.1210 C.2       1 UNK         0.0000
     14 C8         -0.4210   -5.9300    3.0880 C.ar      1 UNK         0.0000
     15 C9          0.2040   -6.2400    4.2870 C.ar      1 UNK         0.0000
     16 C10        -1.7780   -6.1820    2.9270 C.ar      1 UNK         0.0000
     17 C11        -2.3340   -4.4740    0.1980 C.2       1 UNK         0.0000
     18 C12        -4.5460   -4.5830   -0.6660 C.ar      1 UNK         0.0000
     19 C13        -5.5410   -5.3960   -0.0860 C.ar      1 UNK         0.0000
     20 C14        -0.5310   -6.7910    5.3260 C.ar      1 UNK         0.0000
     21 C15        -6.5090   -6.0100   -0.9200 C.ar      1 UNK         0.0000
     22 C16        -2.5060   -6.7360    3.9630 C.ar      1 UNK         0.0000
     23 C17        -1.8890   -7.0410    5.1600 C.ar      1 UNK         0.0000
     24 C18        -4.5320   -4.3990   -2.0320 C.ar      1 UNK         0.0000
     25 C19        -5.5920   -5.6090    1.3000 C.ar      1 UNK         0.0000
     26 C20        -6.4600   -5.7980   -2.3090 C.ar      1 UNK         0.0000
     27 C21        -5.4870   -5.0080   -2.8410 C.ar      1 UNK         0.0000
     28 C22        -7.5010   -6.8200   -0.3420 C.ar      1 UNK         0.0000
     29 C23        -6.5670   -6.4000    1.8260 C.ar      1 UNK         0.0000
     30 C24        -7.5180   -7.0050    1.0070 C.ar      1 UNK         0.0000
     31 H1          2.3310   -6.0070   -1.4980 H         1 UNK         0.0000
     32 H2          3.9390   -5.4070   -1.9710 H         1 UNK         0.0000
     33 H3          3.7970   -6.8020   -0.8760 H         1 UNK         0.0000
     34 H4          4.2020   -2.9500    0.3740 H         1 UNK         0.0000
     35 H5          4.3210   -3.5280   -1.3060 H         1 UNK         0.0000
     36 H6          2.7600   -2.9600   -0.6700 H         1 UNK         0.0000
     37 H7          5.1570   -5.9760    0.5430 H         1 UNK         0.0000
     38 H8          4.8950   -4.4940    1.4940 H         1 UNK         0.0000
     39 H9          3.9320   -5.9520    1.8340 H         1 UNK         0.0000
     40 H10         0.8430   -3.5150   -0.5690 H         1 UNK         0.0000
     41 H11        -1.6890   -3.2090    1.6290 H         1 UNK         0.0000
     42 H12         1.2600   -6.0490    4.4110 H         1 UNK         0.0000
     43 H13        -2.2630   -5.9450    1.9920 H         1 UNK         0.0000
     44 H14        -3.8100   -3.1770    0.6480 H         1 UNK         0.0000
     45 H15        -3.5610   -6.9310    3.8360 H         1 UNK         0.0000
     46 H16        -2.4600   -7.4740    5.9670 H         1 UNK         0.0000
     47 H17        -3.7710   -3.7770   -2.4800 H         1 UNK         0.0000
     48 H18        -4.8600   -5.1470    1.9470 H         1 UNK         0.0000
     49 H19        -7.1900   -6.2650   -2.9520 H         1 UNK         0.0000
     50 H20        -5.4570   -4.8510   -3.9090 H         1 UNK         0.0000
     51 H21        -8.2450   -7.2950   -0.9640 H         1 UNK         0.0000
     52 H22        -6.6030   -6.5620    2.8930 H         1 UNK         0.0000
     53 H23        -8.2820   -7.6280    1.4490 H         1 UNK         0.0000
     54 H24         0.1170   -8.0190    6.8500 H         1 UNK         0.0000
     55 H25         0.5050   -6.3980    7.0640 H         1 UNK         0.0000
@<TRIPOS>BOND
     1    1   17 2
     2    2    3 1
     3    2   13 1
     4    2   14 1
     5    3    8 2
     6    4   13 1
     7    4   17 am
     8    4   41 1
     9    5   17 am
    10    5   18 1
    11    5   44 1
    12    6   20 1
    13    6   54 1
    14    6   55 1
    15    7    8 1
    16    7    9 1
    17    7   10 1
    18    7   11 1
    19    8   12 1
    20    9   31 1
    21    9   32 1
    22    9   33 1
    23   10   34 1
    24   10   35 1
    25   10   36 1
    26   11   37 1
    27   11   38 1
    28   11   39 1
    29   12   13 2
    30   12   40 1
    31   14   15 ar
    32   14   16 ar
    33   15   20 ar
    34   15   42 1
    35   16   22 ar
    36   16   43 1
    37   18   19 ar
    38   18   24 ar
    39   19   21 ar
    40   19   25 ar
    41   20   23 ar
    42   21   26 ar
    43   21   28 ar
    44   22   23 ar
    45   22   45 1
    46   23   46 1
    47   24   27 ar
    48   24   47 1
    49   25   29 ar
    50   25   48 1
    51   26   27 ar
    52   26   49 1
    53   27   50 1
    54   28   30 ar
    55   28   51 1
    56   29   30 ar
    57   29   52 1
    58   30   53 1
