# created with PyMOL 2.4.1
@<TRIPOS>MOLECULE
24821094
57 61 1                 
SMALL
USER_CHARGES
@<TRIPOS>ATOM
1	   O	-8.874	-8.867	3.501	O.2	1	UNK0	0.000	
2	   O	3.357	-8.375	0.221	O.3	1	UNK0	0.000	
3	   N	-6.557	-8.676	3.447	N.pl3	1	UNK0	0.000	
4	   N	-3.211	-6.849	3.703	N.pl3	1	UNK0	0.000	
5	   N	-2.275	-7.586	3.077	N.2	1	UNK0	0.000	
6	   N	-3.584	-4.576	4.448	N.2	1	UNK0	0.000	
7	   N	-1.693	-3.130	3.915	N.2	1	UNK0	0.000	
8	   N	0.260	-3.922	2.794	N.pl3	1	UNK0	0.000	
9	   C	-4.504	-7.504	4.150	C.3	1	UNK0	0.000	
10	   C	-4.254	-8.609	5.196	C.3	1	UNK0	0.000	
11	   C	-5.310	-8.063	2.965	C.3	1	UNK0	0.000	
12	   C	-5.566	-9.279	5.613	C.3	1	UNK0	0.000	
13	   C	-6.352	-9.770	4.399	C.3	1	UNK0	0.000	
14	   C	-2.858	-5.542	3.863	C.2	1	UNK0	0.000	
15	   C	-1.600	-5.414	3.301	C.2	1	UNK0	0.000	
16	   C	-7.852	-8.322	3.080	C.2	1	UNK0	0.000	
17	   C	-1.297	-6.707	2.835	C.2	1	UNK0	0.000	
18	   C	-1.016	-4.153	3.340	C.2	1	UNK0	0.000	
19	   C	-0.098	-7.137	2.161	C.2	1	UNK0	0.000	
20	   C	-8.015	-7.209	2.124	C.2	1	UNK0	0.000	
21	   C	-2.917	-3.401	4.426	C.2	1	UNK0	0.000	
22	   C	0.985	-7.611	2.900	C.2	1	UNK0	0.000	
23	   C	-0.020	-7.079	0.769	C.2	1	UNK0	0.000	
24	   C	-9.070	-7.212	1.306	C.2	1	UNK0	0.000	
25	   C	2.146	-8.028	2.249	C.2	1	UNK0	0.000	
26	   C	1.140	-7.496	0.117	C.2	1	UNK0	0.000	
27	   C	2.224	-7.971	0.857	C.2	1	UNK0	0.000	
28	   C	4.570	-7.950	0.736	C.2	1	UNK0	0.000	
29	   C	4.739	-6.619	1.116	C.2	1	UNK0	0.000	
30	   C	5.624	-8.854	0.875	C.2	1	UNK0	0.000	
31	   C	5.962	-6.191	1.634	C.2	1	UNK0	0.000	
32	   C	6.846	-8.426	1.393	C.2	1	UNK0	0.000	
33	   C	7.015	-7.095	1.772	C.2	1	UNK0	0.000	
34	   H	-5.081	-6.700	4.623	 H	1	UNK0	0.000	
35	   H	-3.758	-8.186	6.078	 H	1	UNK0	0.000	
36	   H	-3.576	-9.370	4.789	 H	1	UNK0	0.000	
37	   H	-5.488	-7.279	2.226	 H	1	UNK0	0.000	
38	   H	-4.746	-8.849	2.446	 H	1	UNK0	0.000	
39	   H	-5.358	-10.117	6.287	 H	1	UNK0	0.000	
40	   H	-6.174	-8.556	6.172	 H	1	UNK0	0.000	
41	   H	-7.308	-10.191	4.725	 H	1	UNK0	0.000	
42	   H	-5.803	-10.564	3.879	 H	1	UNK0	0.000	
43	   H	-7.323	-6.378	2.116	 H	1	UNK0	0.000	
44	   H	-3.432	-2.560	4.879	 H	1	UNK0	0.000	
45	   H	0.939	-7.667	3.986	 H	1	UNK0	0.000	
46	   H	-0.856	-6.711	0.178	 H	1	UNK0	0.000	
47	   H	0.648	-2.989	2.843	 H	1	UNK0	0.000	
48	   H	0.788	-4.664	2.359	 H	1	UNK0	0.000	
49	   H	-9.799	-8.014	1.287	 H	1	UNK0	0.000	
50	   H	-9.219	-6.389	0.613	 H	1	UNK0	0.000	
51	   H	2.966	-8.415	2.849	 H	1	UNK0	0.000	
52	   H	1.196	-7.448	-0.967	 H	1	UNK0	0.000	
53	   H	3.943	-5.889	0.998	 H	1	UNK0	0.000	
54	   H	5.498	-9.892	0.581	 H	1	UNK0	0.000	
55	   H	6.095	-5.153	1.925	 H	1	UNK0	0.000	
56	   H	7.667	-9.130	1.500	 H	1	UNK0	0.000	
57	   H	7.967	-6.761	2.175	 H	1	UNK0	0.000	
@<TRIPOS>BOND
1 1 16 2
2 2 27 1
3 2 28 1
4 3 11 1
5 3 13 1
6 3 16 1
7 4 5 1
8 4 9 1
9 4 14 1
10 5 17 2
11 6 14 2
12 6 21 1
13 7 18 1
14 7 21 2
15 8 18 1
16 8 47 1
17 8 48 1
18 9 10 1
19 9 11 1
20 9 34 1
21 10 12 1
22 10 35 1
23 10 36 1
24 11 37 1
25 11 38 1
26 12 13 1
27 12 39 1
28 12 40 1
29 13 41 1
30 13 42 1
31 14 15 1
32 15 17 1
33 15 18 2
34 16 20 1
35 17 19 1
36 19 22 2
37 19 23 1
38 20 24 2
39 20 43 1
40 21 44 1
41 22 25 1
42 22 45 1
43 23 26 2
44 23 46 1
45 24 49 1
46 24 50 1
47 25 27 2
48 25 51 1
49 26 27 1
50 26 52 1
51 28 29 2
52 28 30 1
53 29 31 1
54 29 53 1
55 30 32 2
56 30 54 1
57 31 33 2
58 31 55 1
59 32 33 1
60 32 56 1
61 33 57 1
@<TRIPOS>SUBSTRUCTURE
1	UNK0	1	GROUP	1 ****	UNK
