@<TRIPOS>MOLECULE
10302451
   70    75     0     0     0
SMALL
NO_CHARGES

@<TRIPOS>ATOM
      1 Cl1       -11.3100  -11.1090   11.4360 Cl        1 UNK         0.0000
      2 O1        -11.2130   -9.0270   14.2040 O.3       1 UNK         0.0000
      3 O2        -14.9970   -7.4100   13.7220 O.3       1 UNK         0.0000
      4 O3         -8.1600   -5.5130   13.2470 O.3       1 UNK         0.0000
      5 O4        -10.4380  -14.0840   15.6410 O.3       1 UNK         0.0000
      6 O5        -11.1750  -15.9910   14.6670 O.3       1 UNK         0.0000
      7 N1         -9.0510   -2.4010   12.7310 N.3       1 UNK         0.0000
      8 N2        -10.3870    0.0960   13.0280 N.3       1 UNK         0.0000
      9 N3        -10.3840  -11.4260   14.2420 N.pl3     1 UNK         0.0000
     10 N4         -6.6320  -10.0220   13.3270 N.ar      1 UNK         0.0000
     11 N5         -8.0960  -11.7540   13.7890 N.ar      1 UNK         0.0000
     12 C1        -10.4300   -2.2260   12.2530 C.3       1 UNK         0.0000
     13 C2         -8.3050   -1.1370   12.6550 C.3       1 UNK         0.0000
     14 C3        -11.1330   -1.1680   13.1060 C.3       1 UNK         0.0000
     15 C4         -9.0080   -0.0790   13.5080 C.3       1 UNK         0.0000
     16 C5         -8.3650   -3.4630   11.9840 C.3       1 UNK         0.0000
     17 C6        -12.2510   -8.0470   14.1370 C.3       1 UNK         0.0000
     18 C7        -12.8870   -8.0680   12.7440 C.3       1 UNK         0.0000
     19 C8        -13.3250   -8.3680   15.1820 C.3       1 UNK         0.0000
     20 C9         -8.9970   -4.8150   12.3230 C.3       1 UNK         0.0000
     21 C10       -11.0720    1.1590   13.7750 C.3       1 UNK         0.0000
     22 C11       -14.0500   -7.0720   12.7070 C.3       1 UNK         0.0000
     23 C12       -14.4710   -7.3600   15.0500 C.3       1 UNK         0.0000
     24 C13        -9.9560   -8.6130   13.9020 C.ar      1 UNK         0.0000
     25 C14        -8.4000   -6.8400   13.4160 C.ar      1 UNK         0.0000
     26 C15        -8.9170   -9.5490   13.7670 C.ar      1 UNK         0.0000
     27 C16        -9.6890   -7.2730   13.7270 C.ar      1 UNK         0.0000
     28 C17        -7.6080   -9.1080   13.4520 C.ar      1 UNK         0.0000
     29 C18        -7.3650   -7.7420   13.2730 C.ar      1 UNK         0.0000
     30 C19        -9.1320  -10.9360   13.9350 C.ar      1 UNK         0.0000
     31 C20       -10.8390  -12.6090   13.6460 C.ar      1 UNK         0.0000
     32 C21        -6.8900  -11.2980   13.4950 C.ar      1 UNK         0.0000
     33 C22       -10.8260  -13.8010   14.3630 C.ar      1 UNK         0.0000
     34 C23       -11.2830  -14.9700   13.7670 C.ar      1 UNK         0.0000
     35 C24       -11.3000  -12.5940   12.3340 C.ar      1 UNK         0.0000
     36 C25       -11.7420  -14.9460   12.4570 C.ar      1 UNK         0.0000
     37 C26       -11.7490  -13.7620   11.7460 C.ar      1 UNK         0.0000
     38 C27       -11.0350  -15.3560   15.9530 C.3       1 UNK         0.0000
     39 H1        -10.9650   -3.1720   12.3320 H         1 UNK         0.0000
     40 H2        -10.4140   -1.9020   11.2120 H         1 UNK         0.0000
     41 H3         -8.2660   -0.8010   11.6180 H         1 UNK         0.0000
     42 H4         -7.2920   -1.2900   13.0260 H         1 UNK         0.0000
     43 H5        -11.1720   -1.5040   14.1430 H         1 UNK         0.0000
     44 H6        -12.1460   -1.0150   12.7340 H         1 UNK         0.0000
     45 H7         -8.4720    0.8670   13.4290 H         1 UNK         0.0000
     46 H8         -9.0230   -0.4030   14.5490 H         1 UNK         0.0000
     47 H9         -8.4620   -3.2760   10.9140 H         1 UNK         0.0000
     48 H10        -7.3110   -3.4770   12.2570 H         1 UNK         0.0000
     49 H11       -11.8340   -7.0590   14.3330 H         1 UNK         0.0000
     50 H12       -12.1420   -7.7870   12.0000 H         1 UNK         0.0000
     51 H13       -13.2590   -9.0700   12.5280 H         1 UNK         0.0000
     52 H14       -13.7060   -9.3760   15.0140 H         1 UNK         0.0000
     53 H15       -12.8940   -8.3000   16.1800 H         1 UNK         0.0000
     54 H16        -9.9770   -4.6560   12.7700 H         1 UNK         0.0000
     55 H17        -9.1040   -5.4050   11.4130 H         1 UNK         0.0000
     56 H18       -10.4510    2.0540   13.7850 H         1 UNK         0.0000
     57 H19       -12.0250    1.3830   13.2960 H         1 UNK         0.0000
     58 H20       -11.2490    0.8280   14.7990 H         1 UNK         0.0000
     59 H21       -13.6710   -6.0640   12.8820 H         1 UNK         0.0000
     60 H22       -14.5330   -7.1130   11.7310 H         1 UNK         0.0000
     61 H23       -14.0970   -6.3570   15.2560 H         1 UNK         0.0000
     62 H24       -15.2580   -7.6090   15.7620 H         1 UNK         0.0000
     63 H25       -10.4860   -6.5510   13.8310 H         1 UNK         0.0000
     64 H26        -6.3720   -7.3950   13.0280 H         1 UNK         0.0000
     65 H27       -10.9510  -10.9490   14.8700 H         1 UNK         0.0000
     66 H28        -6.0820  -12.0060   13.3880 H         1 UNK         0.0000
     67 H29       -12.0920  -15.8550   11.9930 H         1 UNK         0.0000
     68 H30       -12.1060  -13.7480   10.7270 H         1 UNK         0.0000
     69 H31       -12.0100  -15.2180   16.4190 H         1 UNK         0.0000
     70 H32       -10.3810  -15.9410   16.5990 H         1 UNK         0.0000
@<TRIPOS>BOND
     1    1   35 1
     2    2   17 1
     3    2   24 1
     4    3   22 1
     5    3   23 1
     6    4   20 1
     7    4   25 1
     8    5   33 1
     9    5   38 1
    10    6   34 1
    11    6   38 1
    12    7   12 1
    13    7   13 1
    14    7   16 1
    15    8   14 1
    16    8   15 1
    17    8   21 1
    18    9   30 1
    19    9   31 1
    20    9   65 1
    21   10   28 ar
    22   10   32 ar
    23   11   30 ar
    24   11   32 ar
    25   12   14 1
    26   12   39 1
    27   12   40 1
    28   13   15 1
    29   13   41 1
    30   13   42 1
    31   14   43 1
    32   14   44 1
    33   15   45 1
    34   15   46 1
    35   16   20 1
    36   16   47 1
    37   16   48 1
    38   17   18 1
    39   17   19 1
    40   17   49 1
    41   18   22 1
    42   18   50 1
    43   18   51 1
    44   19   23 1
    45   19   52 1
    46   19   53 1
    47   20   54 1
    48   20   55 1
    49   21   56 1
    50   21   57 1
    51   21   58 1
    52   22   59 1
    53   22   60 1
    54   23   61 1
    55   23   62 1
    56   24   26 ar
    57   24   27 ar
    58   25   27 ar
    59   25   29 ar
    60   26   28 ar
    61   26   30 ar
    62   27   63 1
    63   28   29 ar
    64   29   64 1
    65   31   33 ar
    66   31   35 ar
    67   32   66 1
    68   33   34 ar
    69   34   36 ar
    70   35   37 ar
    71   36   37 ar
    72   36   67 1
    73   37   68 1
    74   38   69 1
    75   38   70 1
