@<TRIPOS>MOLECULE
10302451
   70    75     0     0     0
SMALL
NO_CHARGES

@<TRIPOS>ATOM
      1 Cl1         6.5170   -5.6820   -6.9120 Cl        1 UNK         0.0000
      2 O1          5.2290   -4.4710   -2.2890 O.3       1 UNK         0.0000
      3 O2          6.8710   -6.1710    1.1130 O.3       1 UNK         0.0000
      4 O3          0.9890   -2.6950   -1.0840 O.3       1 UNK         0.0000
      5 O4          8.2790   -1.8130   -3.8750 O.3       1 UNK         0.0000
      6 O5         10.1540   -1.4670   -5.0960 O.3       1 UNK         0.0000
      7 N1         -0.9180   -4.7390    0.1870 N.3       1 UNK         0.0000
      8 N2         -1.6510   -6.2270    2.5010 N.3       1 UNK         0.0000
      9 N3          6.2250   -3.8990   -4.5520 N.pl3     1 UNK         0.0000
     10 N4          2.8820   -1.6370   -5.3230 N.ar      1 UNK         0.0000
     11 N5          4.9450   -2.4880   -5.9380 N.ar      1 UNK         0.0000
     12 C1          0.0810   -5.5300    0.9180 C.3       1 UNK         0.0000
     13 C2         -2.2510   -5.3480    0.2960 C.3       1 UNK         0.0000
     14 C3         -0.3190   -5.6170    2.3920 C.3       1 UNK         0.0000
     15 C4         -2.6510   -5.4350    1.7700 C.3       1 UNK         0.0000
     16 C5         -0.5300   -4.5690   -1.2190 C.3       1 UNK         0.0000
     17 C6          5.4840   -4.7140   -0.9040 C.3       1 UNK         0.0000
     18 C7          5.1330   -6.1660   -0.5660 C.3       1 UNK         0.0000
     19 C8          6.9680   -4.4760   -0.6080 C.3       1 UNK         0.0000
     20 C9         -0.3170   -3.0830   -1.5140 C.3       1 UNK         0.0000
     21 C10        -2.0400   -6.3970    3.9070 C.3       1 UNK         0.0000
     22 C11         5.4850   -6.4400    0.8990 C.3       1 UNK         0.0000
     23 C12         7.2490   -4.8160    0.8590 C.3       1 UNK         0.0000
     24 C13         4.1450   -3.7120   -2.5910 C.ar      1 UNK         0.0000
     25 C14         1.9950   -2.8060   -1.9900 C.ar      1 UNK         0.0000
     26 C15         4.0680   -3.0500   -3.8280 C.ar      1 UNK         0.0000
     27 C16         3.1120   -3.5840   -1.6870 C.ar      1 UNK         0.0000
     28 C17         2.9320   -2.2590   -4.1340 C.ar      1 UNK         0.0000
     29 C18         1.8950   -2.1510   -3.2020 C.ar      1 UNK         0.0000
     30 C19         5.0960   -3.1440   -4.7930 C.ar      1 UNK         0.0000
     31 C20         7.3870   -3.6800   -5.3030 C.ar      1 UNK         0.0000
     32 C21         3.8670   -1.7610   -6.1810 C.ar      1 UNK         0.0000
     33 C22         8.2860   -2.6880   -4.9230 C.ar      1 UNK         0.0000
     34 C23         9.4400   -2.4800   -5.6690 C.ar      1 UNK         0.0000
     35 C24         7.6410   -4.4500   -6.4320 C.ar      1 UNK         0.0000
     36 C25         9.6860   -3.2530   -6.7950 C.ar      1 UNK         0.0000
     37 C26         8.7880   -4.2340   -7.1720 C.ar      1 UNK         0.0000
     38 C27         9.6330   -1.3380   -3.7600 C.3       1 UNK         0.0000
     39 H1          1.0570   -5.0510    0.8340 H         1 UNK         0.0000
     40 H2          0.1310   -6.5330    0.4950 H         1 UNK         0.0000
     41 H3         -2.2280   -6.3500   -0.1350 H         1 UNK         0.0000
     42 H4         -2.9760   -4.7380   -0.2420 H         1 UNK         0.0000
     43 H5         -0.3420   -4.6140    2.8230 H         1 UNK         0.0000
     44 H6          0.4060   -6.2270    2.9310 H         1 UNK         0.0000
     45 H7         -3.6270   -5.9140    1.8550 H         1 UNK         0.0000
     46 H8         -2.7010   -4.4320    2.1940 H         1 UNK         0.0000
     47 H9          0.3960   -5.1130   -1.4090 H         1 UNK         0.0000
     48 H10        -1.3180   -4.9580   -1.8630 H         1 UNK         0.0000
     49 H11         4.8780   -4.0410   -0.2970 H         1 UNK         0.0000
     50 H12         4.0670   -6.3280   -0.7210 H         1 UNK         0.0000
     51 H13         5.7020   -6.8380   -1.2080 H         1 UNK         0.0000
     52 H14         7.5740   -5.1150   -1.2520 H         1 UNK         0.0000
     53 H15         7.2140   -3.4320   -0.7930 H         1 UNK         0.0000
     54 H16        -0.4140   -2.9080   -2.5850 H         1 UNK         0.0000
     55 H17        -1.0650   -2.4960   -0.9810 H         1 UNK         0.0000
     56 H18        -2.5180   -5.4850    4.2640 H         1 UNK         0.0000
     57 H19        -2.7380   -7.2300    3.9930 H         1 UNK         0.0000
     58 H20        -1.1540   -6.6030    4.5070 H         1 UNK         0.0000
     59 H21         4.8850   -5.7960    1.5440 H         1 UNK         0.0000
     60 H22         5.2760   -7.4830    1.1350 H         1 UNK         0.0000
     61 H23         6.6720   -4.1510    1.5010 H         1 UNK         0.0000
     62 H24         8.3120   -4.6900    1.0640 H         1 UNK         0.0000
     63 H25         3.1690   -4.0910   -0.7350 H         1 UNK         0.0000
     64 H26         1.0240   -1.5550   -3.4270 H         1 UNK         0.0000
     65 H27         6.2130   -4.5830   -3.8640 H         1 UNK         0.0000
     66 H28         3.7950   -1.2470   -7.1280 H         1 UNK         0.0000
     67 H29        10.5790   -3.0870   -7.3770 H         1 UNK         0.0000
     68 H30         8.9840   -4.8330   -8.0490 H         1 UNK         0.0000
     69 H31        10.1990   -1.9590   -3.0660 H         1 UNK         0.0000
     70 H32         9.6490   -0.2960   -3.4410 H         1 UNK         0.0000
@<TRIPOS>BOND
     1    1   35 1
     2    2   17 1
     3    2   24 1
     4    3   22 1
     5    3   23 1
     6    4   20 1
     7    4   25 1
     8    5   33 1
     9    5   38 1
    10    6   34 1
    11    6   38 1
    12    7   12 1
    13    7   13 1
    14    7   16 1
    15    8   14 1
    16    8   15 1
    17    8   21 1
    18    9   30 1
    19    9   31 1
    20    9   65 1
    21   10   28 ar
    22   10   32 ar
    23   11   30 ar
    24   11   32 ar
    25   12   14 1
    26   12   39 1
    27   12   40 1
    28   13   15 1
    29   13   41 1
    30   13   42 1
    31   14   43 1
    32   14   44 1
    33   15   45 1
    34   15   46 1
    35   16   20 1
    36   16   47 1
    37   16   48 1
    38   17   18 1
    39   17   19 1
    40   17   49 1
    41   18   22 1
    42   18   50 1
    43   18   51 1
    44   19   23 1
    45   19   52 1
    46   19   53 1
    47   20   54 1
    48   20   55 1
    49   21   56 1
    50   21   57 1
    51   21   58 1
    52   22   59 1
    53   22   60 1
    54   23   61 1
    55   23   62 1
    56   24   26 ar
    57   24   27 ar
    58   25   27 ar
    59   25   29 ar
    60   26   28 ar
    61   26   30 ar
    62   27   63 1
    63   28   29 ar
    64   29   64 1
    65   31   33 ar
    66   31   35 ar
    67   32   66 1
    68   33   34 ar
    69   34   36 ar
    70   35   37 ar
    71   36   37 ar
    72   36   67 1
    73   37   68 1
    74   38   69 1
    75   38   70 1
