@<TRIPOS>MOLECULE
25174101
   55    58     0     0     0
SMALL
NO_CHARGES

@<TRIPOS>ATOM
      1 O1          9.3990   -3.8290  -10.7080 O.2       1 UNK         0.0000
      2 N1          7.2260   -6.1300   -9.9670 N.pl3     1 UNK         0.0000
      3 N2          6.1350   -5.9810   -9.1030 N.2       1 UNK         0.0000
      4 N3          9.6570   -5.8240   -9.7680 N.am      1 UNK         0.0000
      5 N4         11.3800   -4.7990  -10.9640 N.am      1 UNK         0.0000
      6 N5          7.7450   -9.5630  -13.3220 N.pl3     1 UNK         0.0000
      7 C1          5.7390   -5.3050   -6.7210 C.3       1 UNK         0.0000
      8 C2          6.5820   -5.5840   -7.9380 C.2       1 UNK         0.0000
      9 C3          5.0240   -3.9630   -6.8940 C.3       1 UNK         0.0000
     10 C4          4.7030   -6.4160   -6.5500 C.3       1 UNK         0.0000
     11 C5          6.6350   -5.2490   -5.4820 C.3       1 UNK         0.0000
     12 C6          7.9730   -5.4730   -8.0120 C.2       1 UNK         0.0000
     13 C7          8.3520   -5.8080   -9.2750 C.2       1 UNK         0.0000
     14 C8          7.1680   -6.5400  -11.3070 C.ar      1 UNK         0.0000
     15 C9          7.4900   -7.8460  -11.6490 C.ar      1 UNK         0.0000
     16 C10         6.7950   -5.6370  -12.2940 C.ar      1 UNK         0.0000
     17 C11        10.1190   -4.7830  -10.4880 C.2       1 UNK         0.0000
     18 C12        11.8980   -3.6730  -11.6080 C.ar      1 UNK         0.0000
     19 C13        12.3300   -2.5590  -10.8590 C.ar      1 UNK         0.0000
     20 C14         7.4270   -8.2480  -12.9750 C.ar      1 UNK         0.0000
     21 C15        12.8520   -1.4280  -11.5350 C.ar      1 UNK         0.0000
     22 C16         6.7380   -6.0390  -13.6150 C.ar      1 UNK         0.0000
     23 C17         7.0520   -7.3390  -13.9580 C.ar      1 UNK         0.0000
     24 C18        11.9900   -3.6420  -12.9830 C.ar      1 UNK         0.0000
     25 C19        12.2540   -2.5500   -9.4580 C.ar      1 UNK         0.0000
     26 C20        12.9290   -1.4360  -12.9380 C.ar      1 UNK         0.0000
     27 C21        12.5040   -2.5250  -13.6350 C.ar      1 UNK         0.0000
     28 C22        13.2830   -0.3190  -10.7880 C.ar      1 UNK         0.0000
     29 C23        12.6810   -1.4570   -8.7660 C.ar      1 UNK         0.0000
     30 C24        13.1930   -0.3450   -9.4300 C.ar      1 UNK         0.0000
     31 H1          5.0090   -3.6940   -7.9500 H         1 UNK         0.0000
     32 H2          4.0010   -4.0450   -6.5250 H         1 UNK         0.0000
     33 H3          5.5520   -3.1940   -6.3300 H         1 UNK         0.0000
     34 H4          4.0490   -6.4410   -7.4220 H         1 UNK         0.0000
     35 H5          5.2120   -7.3750   -6.4500 H         1 UNK         0.0000
     36 H6          4.1100   -6.2260   -5.6560 H         1 UNK         0.0000
     37 H7          7.4510   -5.9640   -5.5900 H         1 UNK         0.0000
     38 H8          7.0470   -4.2440   -5.3750 H         1 UNK         0.0000
     39 H9          6.0500   -5.4970   -4.5970 H         1 UNK         0.0000
     40 H10         8.6300   -5.1710   -7.2100 H         1 UNK         0.0000
     41 H11        10.2330   -6.5860   -9.5920 H         1 UNK         0.0000
     42 H12         7.7850   -8.5480  -10.8830 H         1 UNK         0.0000
     43 H13         6.5490   -4.6190  -12.0290 H         1 UNK         0.0000
     44 H14        11.9280   -5.5920  -10.8590 H         1 UNK         0.0000
     45 H15         6.4470   -5.3350  -14.3810 H         1 UNK         0.0000
     46 H16         7.0070   -7.6510  -14.9910 H         1 UNK         0.0000
     47 H17        11.6600   -4.4930  -13.5600 H         1 UNK         0.0000
     48 H18        11.8580   -3.4060   -8.9300 H         1 UNK         0.0000
     49 H19        13.3210   -0.5770  -13.4620 H         1 UNK         0.0000
     50 H20        12.5660   -2.5220  -14.7140 H         1 UNK         0.0000
     51 H21        13.6830    0.5510  -11.2880 H         1 UNK         0.0000
     52 H22        12.6210   -1.4530   -7.6880 H         1 UNK         0.0000
     53 H23        13.5250    0.5100   -8.8580 H         1 UNK         0.0000
     54 H24         8.2390   -9.7430  -14.1370 H         1 UNK         0.0000
     55 H25         7.4730  -10.2960  -12.7470 H         1 UNK         0.0000
@<TRIPOS>BOND
     1    1   17 2
     2    2    3 1
     3    2   13 1
     4    2   14 1
     5    3    8 2
     6    4   13 1
     7    4   17 am
     8    4   41 1
     9    5   17 am
    10    5   18 1
    11    5   44 1
    12    6   20 1
    13    6   54 1
    14    6   55 1
    15    7    8 1
    16    7    9 1
    17    7   10 1
    18    7   11 1
    19    8   12 1
    20    9   31 1
    21    9   32 1
    22    9   33 1
    23   10   34 1
    24   10   35 1
    25   10   36 1
    26   11   37 1
    27   11   38 1
    28   11   39 1
    29   12   13 2
    30   12   40 1
    31   14   15 ar
    32   14   16 ar
    33   15   20 ar
    34   15   42 1
    35   16   22 ar
    36   16   43 1
    37   18   19 ar
    38   18   24 ar
    39   19   21 ar
    40   19   25 ar
    41   20   23 ar
    42   21   26 ar
    43   21   28 ar
    44   22   23 ar
    45   22   45 1
    46   23   46 1
    47   24   27 ar
    48   24   47 1
    49   25   29 ar
    50   25   48 1
    51   26   27 ar
    52   26   49 1
    53   27   50 1
    54   28   30 ar
    55   28   51 1
    56   29   30 ar
    57   29   52 1
    58   30   53 1
