@<TRIPOS>MOLECULE
25174101
   55    58     0     0     0
SMALL
NO_CHARGES

@<TRIPOS>ATOM
      1 O1          6.6870   -5.2670   -5.4310 O.2       1 UNK         0.0000
      2 N1          5.0100   -6.4720   -8.2290 N.pl3     1 UNK         0.0000
      3 N2          5.7520   -6.8340   -9.3600 N.2       1 UNK         0.0000
      4 N3          5.0060   -4.5520   -6.6940 N.am      1 UNK         0.0000
      5 N4          5.2240   -3.9070   -4.4610 N.am      1 UNK         0.0000
      6 N5          2.5720   -7.9090   -4.3180 N.pl3     1 UNK         0.0000
      7 C1          7.6260   -5.8820  -10.7280 C.3       1 UNK         0.0000
      8 C2          6.6270   -5.8900   -9.6000 C.2       1 UNK         0.0000
      9 C3          7.3910   -4.6520  -11.6080 C.3       1 UNK         0.0000
     10 C4          9.0430   -5.8370  -10.1560 C.3       1 UNK         0.0000
     11 C5          7.4550   -7.1500  -11.5690 C.3       1 UNK         0.0000
     12 C6          6.4730   -4.8880   -8.6370 C.2       1 UNK         0.0000
     13 C7          5.4740   -5.2680   -7.7950 C.2       1 UNK         0.0000
     14 C8          3.9740   -7.2160   -7.6480 C.ar      1 UNK         0.0000
     15 C9          3.7910   -7.1960   -6.2730 C.ar      1 UNK         0.0000
     16 C10         3.1340   -7.9800   -8.4480 C.ar      1 UNK         0.0000
     17 C11         5.6750   -4.5990   -5.5250 C.2       1 UNK         0.0000
     18 C12         5.9770   -3.8610   -3.2860 C.ar      1 UNK         0.0000
     19 C13         5.9670   -2.7050   -2.4780 C.ar      1 UNK         0.0000
     20 C14         2.7620   -7.9300   -5.7020 C.ar      1 UNK         0.0000
     21 C15         6.7400   -2.6810   -1.2910 C.ar      1 UNK         0.0000
     22 C16         2.1120   -8.7140   -7.8760 C.ar      1 UNK         0.0000
     23 C17         1.9240   -8.6930   -6.5080 C.ar      1 UNK         0.0000
     24 C18         6.7380   -4.9460   -2.9060 C.ar      1 UNK         0.0000
     25 C19         5.2070   -1.5790   -2.8280 C.ar      1 UNK         0.0000
     26 C20         7.5030   -3.8080   -0.9390 C.ar      1 UNK         0.0000
     27 C21         7.4940   -4.9100   -1.7380 C.ar      1 UNK         0.0000
     28 C22         6.7290   -1.5290   -0.4860 C.ar      1 UNK         0.0000
     29 C23         5.2200   -0.4790   -2.0240 C.ar      1 UNK         0.0000
     30 C24         5.9800   -0.4540   -0.8570 C.ar      1 UNK         0.0000
     31 H1          6.3190   -4.4880  -11.7240 H         1 UNK         0.0000
     32 H2          7.8430   -3.7770  -11.1380 H         1 UNK         0.0000
     33 H3          7.8420   -4.8120  -12.5860 H         1 UNK         0.0000
     34 H4          9.5430   -6.7870  -10.3470 H         1 UNK         0.0000
     35 H5          9.6020   -5.0310  -10.6310 H         1 UNK         0.0000
     36 H6          8.9960   -5.6620   -9.0810 H         1 UNK         0.0000
     37 H7          6.5370   -7.0780  -12.1520 H         1 UNK         0.0000
     38 H8          8.3050   -7.2560  -12.2430 H         1 UNK         0.0000
     39 H9          7.4010   -8.0170  -10.9120 H         1 UNK         0.0000
     40 H10         7.0480   -3.9760   -8.5720 H         1 UNK         0.0000
     41 H11         4.1990   -4.0190   -6.7690 H         1 UNK         0.0000
     42 H12         4.4470   -6.6060   -5.6490 H         1 UNK         0.0000
     43 H13         3.2790   -7.9990   -9.5180 H         1 UNK         0.0000
     44 H14         4.3750   -3.4410   -4.5110 H         1 UNK         0.0000
     45 H15         1.4600   -9.3070   -8.5000 H         1 UNK         0.0000
     46 H16         1.1250   -9.2670   -6.0640 H         1 UNK         0.0000
     47 H17         6.7490   -5.8330   -3.5220 H         1 UNK         0.0000
     48 H18         4.6130   -1.5840   -3.7300 H         1 UNK         0.0000
     49 H19         8.0980   -3.7970   -0.0380 H         1 UNK         0.0000
     50 H20         8.0830   -5.7720   -1.4600 H         1 UNK         0.0000
     51 H21         7.3130   -1.4950    0.4220 H         1 UNK         0.0000
     52 H22         4.6330    0.3850   -2.2960 H         1 UNK         0.0000
     53 H23         5.9740    0.4300   -0.2370 H         1 UNK         0.0000
     54 H24         2.5370   -7.0620   -3.8470 H         1 UNK         0.0000
     55 H25         2.4740   -8.7410   -3.8290 H         1 UNK         0.0000
@<TRIPOS>BOND
     1    1   17 2
     2    2    3 1
     3    2   13 1
     4    2   14 1
     5    3    8 2
     6    4   13 1
     7    4   17 am
     8    4   41 1
     9    5   17 am
    10    5   18 1
    11    5   44 1
    12    6   20 1
    13    6   54 1
    14    6   55 1
    15    7    8 1
    16    7    9 1
    17    7   10 1
    18    7   11 1
    19    8   12 1
    20    9   31 1
    21    9   32 1
    22    9   33 1
    23   10   34 1
    24   10   35 1
    25   10   36 1
    26   11   37 1
    27   11   38 1
    28   11   39 1
    29   12   13 2
    30   12   40 1
    31   14   15 ar
    32   14   16 ar
    33   15   20 ar
    34   15   42 1
    35   16   22 ar
    36   16   43 1
    37   18   19 ar
    38   18   24 ar
    39   19   21 ar
    40   19   25 ar
    41   20   23 ar
    42   21   26 ar
    43   21   28 ar
    44   22   23 ar
    45   22   45 1
    46   23   46 1
    47   24   27 ar
    48   24   47 1
    49   25   29 ar
    50   25   48 1
    51   26   27 ar
    52   26   49 1
    53   27   50 1
    54   28   30 ar
    55   28   51 1
    56   29   30 ar
    57   29   52 1
    58   30   53 1
