@<TRIPOS>MOLECULE
25174101
   55    58     0     0     0
SMALL
NO_CHARGES

@<TRIPOS>ATOM
      1 O1          4.4470   -9.2240   -9.2090 O.2       1 UNK         0.0000
      2 N1          6.1120   -8.5150  -11.9530 N.pl3     1 UNK         0.0000
      3 N2          6.7510   -9.4620  -12.7630 N.2       1 UNK         0.0000
      4 N3          3.8290   -8.2220  -11.0920 N.am      1 UNK         0.0000
      5 N4          2.7530   -7.7950   -9.0640 N.am      1 UNK         0.0000
      6 N5          6.9310   -3.7570  -11.9720 N.pl3     1 UNK         0.0000
      7 C1          6.1460  -11.5730  -13.9730 C.3       1 UNK         0.0000
      8 C2          5.8740  -10.3720  -13.1050 C.2       1 UNK         0.0000
      9 C3          5.6160  -11.3120  -15.3850 C.3       1 UNK         0.0000
     10 C4          7.6520  -11.8300  -14.0330 C.3       1 UNK         0.0000
     11 C5          5.4420  -12.7980  -13.3840 C.3       1 UNK         0.0000
     12 C6          4.6460  -10.0450  -12.5230 C.2       1 UNK         0.0000
     13 C7          4.8110   -8.8910  -11.8200 C.2       1 UNK         0.0000
     14 C8          6.7070   -7.3820  -11.3820 C.ar      1 UNK         0.0000
     15 C9          6.5270   -6.1350  -11.9630 C.ar      1 UNK         0.0000
     16 C10         7.4810   -7.5070  -10.2350 C.ar      1 UNK         0.0000
     17 C11         3.7020   -8.4420   -9.7680 C.2       1 UNK         0.0000
     18 C12         2.6970   -7.9320   -7.6760 C.ar      1 UNK         0.0000
     19 C13         3.5720   -7.1950   -6.8510 C.ar      1 UNK         0.0000
     20 C14         7.1140   -5.0150  -11.3920 C.ar      1 UNK         0.0000
     21 C15         3.4970   -7.3510   -5.4450 C.ar      1 UNK         0.0000
     22 C16         8.0680   -6.3900   -9.6710 C.ar      1 UNK         0.0000
     23 C17         7.8880   -5.1470  -10.2440 C.ar      1 UNK         0.0000
     24 C18         1.7850   -8.7890   -7.0990 C.ar      1 UNK         0.0000
     25 C19         4.5150   -6.3100   -7.3960 C.ar      1 UNK         0.0000
     26 C20         2.5540   -8.2360   -4.8960 C.ar      1 UNK         0.0000
     27 C21         1.7220   -8.9350   -5.7160 C.ar      1 UNK         0.0000
     28 C22         4.3690   -6.6160   -4.6240 C.ar      1 UNK         0.0000
     29 C23         5.3450   -5.6140   -6.5710 C.ar      1 UNK         0.0000
     30 C24         5.2720   -5.7670   -5.1880 C.ar      1 UNK         0.0000
     31 H1          6.4490  -11.0720  -16.0460 H         1 UNK         0.0000
     32 H2          5.1050  -12.2020  -15.7520 H         1 UNK         0.0000
     33 H3          4.9180  -10.4760  -15.3630 H         1 UNK         0.0000
     34 H4          7.8460  -12.8910  -13.8720 H         1 UNK         0.0000
     35 H5          8.0340  -11.5340  -15.0100 H         1 UNK         0.0000
     36 H6          8.1510  -11.2490  -13.2570 H         1 UNK         0.0000
     37 H7          5.2810  -13.5370  -14.1690 H         1 UNK         0.0000
     38 H8          6.0640  -13.2320  -12.6000 H         1 UNK         0.0000
     39 H9          4.4830  -12.4990  -12.9630 H         1 UNK         0.0000
     40 H10         3.7290  -10.6070  -12.6170 H         1 UNK         0.0000
     41 H11         3.2350   -7.5970  -11.5380 H         1 UNK         0.0000
     42 H12         5.9290   -6.0370  -12.8570 H         1 UNK         0.0000
     43 H13         7.6250   -8.4780   -9.7850 H         1 UNK         0.0000
     44 H14         2.1080   -7.2330   -9.5220 H         1 UNK         0.0000
     45 H15         8.6700   -6.4890   -8.7800 H         1 UNK         0.0000
     46 H16         8.3470   -4.2760   -9.8010 H         1 UNK         0.0000
     47 H17         1.1130   -9.3560   -7.7270 H         1 UNK         0.0000
     48 H18         4.5830   -6.1820   -8.4670 H         1 UNK         0.0000
     49 H19         2.4920   -8.3640   -3.8260 H         1 UNK         0.0000
     50 H20         0.9990   -9.6140   -5.2870 H         1 UNK         0.0000
     51 H21         4.3240   -6.7240   -3.5500 H         1 UNK         0.0000
     52 H22         6.0690   -4.9340   -6.9940 H         1 UNK         0.0000
     53 H23         5.9420   -5.2040   -4.5540 H         1 UNK         0.0000
     54 H24         7.2310   -2.9610  -11.5060 H         1 UNK         0.0000
     55 H25         6.5060   -3.6810  -12.8400 H         1 UNK         0.0000
@<TRIPOS>BOND
     1    1   17 2
     2    2    3 1
     3    2   13 1
     4    2   14 1
     5    3    8 2
     6    4   13 1
     7    4   17 am
     8    4   41 1
     9    5   17 am
    10    5   18 1
    11    5   44 1
    12    6   20 1
    13    6   54 1
    14    6   55 1
    15    7    8 1
    16    7    9 1
    17    7   10 1
    18    7   11 1
    19    8   12 1
    20    9   31 1
    21    9   32 1
    22    9   33 1
    23   10   34 1
    24   10   35 1
    25   10   36 1
    26   11   37 1
    27   11   38 1
    28   11   39 1
    29   12   13 2
    30   12   40 1
    31   14   15 ar
    32   14   16 ar
    33   15   20 ar
    34   15   42 1
    35   16   22 ar
    36   16   43 1
    37   18   19 ar
    38   18   24 ar
    39   19   21 ar
    40   19   25 ar
    41   20   23 ar
    42   21   26 ar
    43   21   28 ar
    44   22   23 ar
    45   22   45 1
    46   23   46 1
    47   24   27 ar
    48   24   47 1
    49   25   29 ar
    50   25   48 1
    51   26   27 ar
    52   26   49 1
    53   27   50 1
    54   28   30 ar
    55   28   51 1
    56   29   30 ar
    57   29   52 1
    58   30   53 1
