@<TRIPOS>MOLECULE
25174101
   55    58     0     0     0
SMALL
NO_CHARGES

@<TRIPOS>ATOM
      1 O1          5.3400   -8.6350   -9.2490 O.2       1 UNK         0.0000
      2 N1          6.5140   -8.5880  -12.1040 N.pl3     1 UNK         0.0000
      3 N2          7.0620   -9.6000  -12.9020 N.2       1 UNK         0.0000
      4 N3          4.2960   -8.1390  -11.1450 N.am      1 UNK         0.0000
      5 N4          3.5490   -7.3310   -9.0860 N.am      1 UNK         0.0000
      6 N5          7.0270   -3.7960  -11.8230 N.pl3     1 UNK         0.0000
      7 C1          6.2890  -11.7240  -13.9870 C.3       1 UNK         0.0000
      8 C2          6.1240  -10.4760  -13.1600 C.2       1 UNK         0.0000
      9 C3          5.7430  -11.4790  -15.3950 C.3       1 UNK         0.0000
     10 C4          7.7720  -12.0880  -14.0710 C.3       1 UNK         0.0000
     11 C5          5.5180  -12.8740  -13.3350 C.3       1 UNK         0.0000
     12 C6          4.9460  -10.0600  -12.5330 C.2       1 UNK         0.0000
     13 C7          5.2050   -8.8890  -11.8910 C.2       1 UNK         0.0000
     14 C8          7.1940   -7.4650  -11.6120 C.ar      1 UNK         0.0000
     15 C9          6.7760   -6.1900  -11.9650 C.ar      1 UNK         0.0000
     16 C10         8.2910   -7.6270  -10.7760 C.ar      1 UNK         0.0000
     17 C11         4.4270   -8.0560   -9.8060 C.2       1 UNK         0.0000
     18 C12         3.7510   -7.1480   -7.7160 C.ar      1 UNK         0.0000
     19 C13         2.9240   -7.8030   -6.7800 C.ar      1 UNK         0.0000
     20 C14         7.4480   -5.0810  -11.4730 C.ar      1 UNK         0.0000
     21 C15         3.1470   -7.6020   -5.3960 C.ar      1 UNK         0.0000
     22 C16         8.9620   -6.5210  -10.2910 C.ar      1 UNK         0.0000
     23 C17         8.5460   -5.2500  -10.6360 C.ar      1 UNK         0.0000
     24 C18         4.7620   -6.3250   -7.2680 C.ar      1 UNK         0.0000
     25 C19         1.8840   -8.6500   -7.1940 C.ar      1 UNK         0.0000
     26 C20         4.1880   -6.7540   -4.9790 C.ar      1 UNK         0.0000
     27 C21         4.9710   -6.1350   -5.9050 C.ar      1 UNK         0.0000
     28 C22         2.3230   -8.2540   -4.4640 C.ar      1 UNK         0.0000
     29 C23         1.1040   -9.2660   -6.2640 C.ar      1 UNK         0.0000
     30 C24         1.3230   -9.0680   -4.9020 C.ar      1 UNK         0.0000
     31 H1          4.8320  -10.8830  -15.3330 H         1 UNK         0.0000
     32 H2          6.4870  -10.9420  -15.9860 H         1 UNK         0.0000
     33 H3          5.5220  -12.4330  -15.8720 H         1 UNK         0.0000
     34 H4          7.8790  -13.0760  -14.5210 H         1 UNK         0.0000
     35 H5          8.2940  -11.3520  -14.6820 H         1 UNK         0.0000
     36 H6          8.2010  -12.0980  -13.0690 H         1 UNK         0.0000
     37 H7          6.0650  -13.2280  -12.4600 H         1 UNK         0.0000
     38 H8          4.5320  -12.5230  -13.0280 H         1 UNK         0.0000
     39 H9          5.4080  -13.6890  -14.0490 H         1 UNK         0.0000
     40 H10         3.9970  -10.5770  -12.5570 H         1 UNK         0.0000
     41 H11         3.5680   -7.6760  -11.5900 H         1 UNK         0.0000
     42 H12         5.9260   -6.0620  -12.6190 H         1 UNK         0.0000
     43 H13         8.6200   -8.6200  -10.5050 H         1 UNK         0.0000
     44 H14         2.7760   -6.9370   -9.5190 H         1 UNK         0.0000
     45 H15         9.8150   -6.6500   -9.6410 H         1 UNK         0.0000
     46 H16         9.0720   -4.3880  -10.2560 H         1 UNK         0.0000
     47 H17         5.3970   -5.8220   -7.9810 H         1 UNK         0.0000
     48 H18         1.7030   -8.8120   -8.2470 H         1 UNK         0.0000
     49 H19         4.3630   -6.5910   -3.9260 H         1 UNK         0.0000
     50 H20         5.7680   -5.4840   -5.5760 H         1 UNK         0.0000
     51 H21         2.4810   -8.1110   -3.4050 H         1 UNK         0.0000
     52 H22         0.3060   -9.9170   -6.5850 H         1 UNK         0.0000
     53 H23         0.6910   -9.5690   -4.1830 H         1 UNK         0.0000
     54 H24         7.4130   -3.0230  -11.3810 H         1 UNK         0.0000
     55 H25         6.3500   -3.6770  -12.5070 H         1 UNK         0.0000
@<TRIPOS>BOND
     1    1   17 2
     2    2    3 1
     3    2   13 1
     4    2   14 1
     5    3    8 2
     6    4   13 1
     7    4   17 am
     8    4   41 1
     9    5   17 am
    10    5   18 1
    11    5   44 1
    12    6   20 1
    13    6   54 1
    14    6   55 1
    15    7    8 1
    16    7    9 1
    17    7   10 1
    18    7   11 1
    19    8   12 1
    20    9   31 1
    21    9   32 1
    22    9   33 1
    23   10   34 1
    24   10   35 1
    25   10   36 1
    26   11   37 1
    27   11   38 1
    28   11   39 1
    29   12   13 2
    30   12   40 1
    31   14   15 ar
    32   14   16 ar
    33   15   20 ar
    34   15   42 1
    35   16   22 ar
    36   16   43 1
    37   18   19 ar
    38   18   24 ar
    39   19   21 ar
    40   19   25 ar
    41   20   23 ar
    42   21   26 ar
    43   21   28 ar
    44   22   23 ar
    45   22   45 1
    46   23   46 1
    47   24   27 ar
    48   24   47 1
    49   25   29 ar
    50   25   48 1
    51   26   27 ar
    52   26   49 1
    53   27   50 1
    54   28   30 ar
    55   28   51 1
    56   29   30 ar
    57   29   52 1
    58   30   53 1
