@<TRIPOS>MOLECULE
25174101
   55    58     0     0     0
SMALL
NO_CHARGES

@<TRIPOS>ATOM
      1 O1          8.3520   -5.1260   -9.4800 O.2       1 UNK         0.0000
      2 N1          5.4460   -6.3250   -8.3580 N.pl3     1 UNK         0.0000
      3 N2          5.2040   -6.5980   -7.0060 N.2       1 UNK         0.0000
      4 N3          6.2650   -4.3800   -9.6180 N.am      1 UNK         0.0000
      5 N4          7.8760   -3.8210  -11.2130 N.am      1 UNK         0.0000
      6 N5          2.4920   -8.6000  -11.4250 N.pl3     1 UNK         0.0000
      7 C1          5.3890   -5.3990   -4.8120 C.3       1 UNK         0.0000
      8 C2          5.5030   -5.5310   -6.3090 C.2       1 UNK         0.0000
      9 C3          4.3780   -6.4200   -4.2860 C.3       1 UNK         0.0000
     10 C4          6.7540   -5.6530   -4.1710 C.3       1 UNK         0.0000
     11 C5          4.9160   -3.9860   -4.4610 C.3       1 UNK         0.0000
     12 C6          5.9520   -4.5410   -7.1860 C.2       1 UNK         0.0000
     13 C7          5.9040   -5.0470   -8.4480 C.2       1 UNK         0.0000
     14 C8          5.2510   -7.2100   -9.4280 C.ar      1 UNK         0.0000
     15 C9          3.9690   -7.4680   -9.8910 C.ar      1 UNK         0.0000
     16 C10         6.3410   -7.8340  -10.0210 C.ar      1 UNK         0.0000
     17 C11         7.5280   -4.4660  -10.0820 C.2       1 UNK         0.0000
     18 C12         9.1490   -4.0040  -11.7580 C.ar      1 UNK         0.0000
     19 C13        10.2100   -3.1480  -11.3930 C.ar      1 UNK         0.0000
     20 C14         3.7810   -8.3410  -10.9520 C.ar      1 UNK         0.0000
     21 C15        11.4920   -3.3520  -11.9590 C.ar      1 UNK         0.0000
     22 C16         6.1500   -8.7060  -11.0750 C.ar      1 UNK         0.0000
     23 C17         4.8760   -8.9620  -11.5430 C.ar      1 UNK         0.0000
     24 C18         9.3790   -5.0220  -12.6580 C.ar      1 UNK         0.0000
     25 C19        10.0180   -2.1000  -10.4800 C.ar      1 UNK         0.0000
     26 C20        11.6850   -4.4020  -12.8740 C.ar      1 UNK         0.0000
     27 C21        10.6440   -5.2120  -13.2080 C.ar      1 UNK         0.0000
     28 C22        12.5480   -2.5000  -11.5950 C.ar      1 UNK         0.0000
     29 C23        11.0640   -1.2930  -10.1490 C.ar      1 UNK         0.0000
     30 C24        12.3260   -1.4930  -10.7060 C.ar      1 UNK         0.0000
     31 H1          4.9100   -7.2830   -3.8860 H         1 UNK         0.0000
     32 H2          3.7790   -5.9650   -3.4960 H         1 UNK         0.0000
     33 H3          3.7260   -6.7390   -5.0980 H         1 UNK         0.0000
     34 H4          7.5050   -5.7790   -4.9520 H         1 UNK         0.0000
     35 H5          7.0230   -4.8070   -3.5400 H         1 UNK         0.0000
     36 H6          6.7070   -6.5580   -3.5650 H         1 UNK         0.0000
     37 H7          5.4130   -3.6530   -3.5490 H         1 UNK         0.0000
     38 H8          5.1630   -3.3060   -5.2760 H         1 UNK         0.0000
     39 H9          3.8380   -3.9910   -4.3050 H         1 UNK         0.0000
     40 H10         6.2770   -3.5480   -6.9100 H         1 UNK         0.0000
     41 H11         5.6070   -3.8530  -10.0990 H         1 UNK         0.0000
     42 H12         3.1200   -6.9870   -9.4280 H         1 UNK         0.0000
     43 H13         7.3390   -7.6360   -9.6580 H         1 UNK         0.0000
     44 H14         7.2430   -3.2300  -11.6490 H         1 UNK         0.0000
     45 H15         6.9990   -9.1900  -11.5350 H         1 UNK         0.0000
     46 H16         4.7300   -9.6440  -12.3660 H         1 UNK         0.0000
     47 H17         8.5700   -5.6790  -12.9400 H         1 UNK         0.0000
     48 H18         9.0450   -1.9340  -10.0410 H         1 UNK         0.0000
     49 H19        12.6590   -4.5630  -13.3130 H         1 UNK         0.0000
     50 H20        10.8010   -6.0160  -13.9120 H         1 UNK         0.0000
     51 H21        13.5320   -2.6430  -12.0180 H         1 UNK         0.0000
     52 H22        10.9140   -0.4880   -9.4470 H         1 UNK         0.0000
     53 H23        13.1400   -0.8390  -10.4280 H         1 UNK         0.0000
     54 H24         1.7230   -8.2380  -10.9570 H         1 UNK         0.0000
     55 H25         2.3660   -9.1400  -12.2210 H         1 UNK         0.0000
@<TRIPOS>BOND
     1    1   17 2
     2    2    3 1
     3    2   13 1
     4    2   14 1
     5    3    8 2
     6    4   13 1
     7    4   17 am
     8    4   41 1
     9    5   17 am
    10    5   18 1
    11    5   44 1
    12    6   20 1
    13    6   54 1
    14    6   55 1
    15    7    8 1
    16    7    9 1
    17    7   10 1
    18    7   11 1
    19    8   12 1
    20    9   31 1
    21    9   32 1
    22    9   33 1
    23   10   34 1
    24   10   35 1
    25   10   36 1
    26   11   37 1
    27   11   38 1
    28   11   39 1
    29   12   13 2
    30   12   40 1
    31   14   15 ar
    32   14   16 ar
    33   15   20 ar
    34   15   42 1
    35   16   22 ar
    36   16   43 1
    37   18   19 ar
    38   18   24 ar
    39   19   21 ar
    40   19   25 ar
    41   20   23 ar
    42   21   26 ar
    43   21   28 ar
    44   22   23 ar
    45   22   45 1
    46   23   46 1
    47   24   27 ar
    48   24   47 1
    49   25   29 ar
    50   25   48 1
    51   26   27 ar
    52   26   49 1
    53   27   50 1
    54   28   30 ar
    55   28   51 1
    56   29   30 ar
    57   29   52 1
    58   30   53 1
