@<TRIPOS>MOLECULE
25174101
   55    58     0     0     0
SMALL
NO_CHARGES

@<TRIPOS>ATOM
      1 O1          7.0160   -6.0960   -9.2090 O.2       1 UNK         0.0000
      2 N1          8.3990   -5.2860  -12.2100 N.pl3     1 UNK         0.0000
      3 N2          9.7850   -5.1510  -12.3550 N.2       1 UNK         0.0000
      4 N3          6.7230   -4.4180  -10.6350 N.am      1 UNK         0.0000
      5 N4          5.0280   -5.1060   -9.1840 N.am      1 UNK         0.0000
      6 N5          5.8100   -9.2810  -13.0160 N.pl3     1 UNK         0.0000
      7 C1         11.6620   -3.9650  -11.1900 C.3       1 UNK         0.0000
      8 C2         10.2260   -4.3720  -11.4010 C.2       1 UNK         0.0000
      9 C3         12.4170   -4.0590  -12.5170 C.3       1 UNK         0.0000
     10 C4         11.7150   -2.5270  -10.6730 C.3       1 UNK         0.0000
     11 C5         12.3110   -4.8990  -10.1670 C.3       1 UNK         0.0000
     12 C6          9.1400   -3.9750  -10.6150 C.2       1 UNK         0.0000
     13 C7          8.0210   -4.5550  -11.1270 C.2       1 UNK         0.0000
     14 C8          7.5510   -6.0400  -13.0340 C.ar      1 UNK         0.0000
     15 C9          7.1060   -7.2870  -12.6180 C.ar      1 UNK         0.0000
     16 C10         7.1610   -5.5430  -14.2710 C.ar      1 UNK         0.0000
     17 C11         6.2820   -5.2380   -9.6600 C.2       1 UNK         0.0000
     18 C12         4.6090   -5.8750   -8.0960 C.ar      1 UNK         0.0000
     19 C13         3.8630   -7.0550   -8.3020 C.ar      1 UNK         0.0000
     20 C14         6.2640   -8.0270  -13.4340 C.ar      1 UNK         0.0000
     21 C15         3.4480   -7.8180   -7.1830 C.ar      1 UNK         0.0000
     22 C16         6.3270   -6.2850  -15.0840 C.ar      1 UNK         0.0000
     23 C17         5.8770   -7.5240  -14.6710 C.ar      1 UNK         0.0000
     24 C18         4.9200   -5.4860   -6.8110 C.ar      1 UNK         0.0000
     25 C19         3.5250   -7.4860   -9.5940 C.ar      1 UNK         0.0000
     26 C20         3.7850   -7.3870   -5.8890 C.ar      1 UNK         0.0000
     27 C21         4.5050   -6.2440   -5.7190 C.ar      1 UNK         0.0000
     28 C22         2.7060   -8.9930   -7.3890 C.ar      1 UNK         0.0000
     29 C23         2.8050   -8.6310   -9.7570 C.ar      1 UNK         0.0000
     30 C24         2.3960   -9.3810   -8.6570 C.ar      1 UNK         0.0000
     31 H1         12.7160   -5.0930  -12.6920 H         1 UNK         0.0000
     32 H2         11.7690   -3.7260  -13.3290 H         1 UNK         0.0000
     33 H3         13.3030   -3.4270  -12.4780 H         1 UNK         0.0000
     34 H4         10.7230   -2.0790  -10.7420 H         1 UNK         0.0000
     35 H5         12.0430   -2.5260   -9.6340 H         1 UNK         0.0000
     36 H6         12.4170   -1.9500  -11.2760 H         1 UNK         0.0000
     37 H7         12.8320   -5.7040  -10.6870 H         1 UNK         0.0000
     38 H8         13.0250   -4.3370   -9.5630 H         1 UNK         0.0000
     39 H9         11.5430   -5.3220   -9.5210 H         1 UNK         0.0000
     40 H10         9.1840   -3.3260   -9.7530 H         1 UNK         0.0000
     41 H11         6.1370   -3.7330  -10.9940 H         1 UNK         0.0000
     42 H12         7.4120   -7.6770  -11.6580 H         1 UNK         0.0000
     43 H13         7.5120   -4.5750  -14.5970 H         1 UNK         0.0000
     44 H14         4.4160   -4.4780   -9.5980 H         1 UNK         0.0000
     45 H15         6.0240   -5.8970  -16.0450 H         1 UNK         0.0000
     46 H16         5.2250   -8.1020  -15.3080 H         1 UNK         0.0000
     47 H17         5.4900   -4.5830   -6.6490 H         1 UNK         0.0000
     48 H18         3.8360   -6.9140  -10.4560 H         1 UNK         0.0000
     49 H19         3.4700   -7.9600   -5.0290 H         1 UNK         0.0000
     50 H20         4.7600   -5.9200   -4.7210 H         1 UNK         0.0000
     51 H21         2.3820   -9.5860   -6.5460 H         1 UNK         0.0000
     52 H22         2.5480   -8.9600  -10.7520 H         1 UNK         0.0000
     53 H23         1.8250  -10.2850   -8.8120 H         1 UNK         0.0000
     54 H24         5.7630   -9.4890  -12.0690 H         1 UNK         0.0000
     55 H25         5.5420   -9.9430  -13.6720 H         1 UNK         0.0000
@<TRIPOS>BOND
     1    1   17 2
     2    2    3 1
     3    2   13 1
     4    2   14 1
     5    3    8 2
     6    4   13 1
     7    4   17 am
     8    4   41 1
     9    5   17 am
    10    5   18 1
    11    5   44 1
    12    6   20 1
    13    6   54 1
    14    6   55 1
    15    7    8 1
    16    7    9 1
    17    7   10 1
    18    7   11 1
    19    8   12 1
    20    9   31 1
    21    9   32 1
    22    9   33 1
    23   10   34 1
    24   10   35 1
    25   10   36 1
    26   11   37 1
    27   11   38 1
    28   11   39 1
    29   12   13 2
    30   12   40 1
    31   14   15 ar
    32   14   16 ar
    33   15   20 ar
    34   15   42 1
    35   16   22 ar
    36   16   43 1
    37   18   19 ar
    38   18   24 ar
    39   19   21 ar
    40   19   25 ar
    41   20   23 ar
    42   21   26 ar
    43   21   28 ar
    44   22   23 ar
    45   22   45 1
    46   23   46 1
    47   24   27 ar
    48   24   47 1
    49   25   29 ar
    50   25   48 1
    51   26   27 ar
    52   26   49 1
    53   27   50 1
    54   28   30 ar
    55   28   51 1
    56   29   30 ar
    57   29   52 1
    58   30   53 1
