@<TRIPOS>MOLECULE
25174101
   55    58     0     0     0
SMALL
NO_CHARGES

@<TRIPOS>ATOM
      1 O1          7.1350   -5.5520   -8.2130 O.2       1 UNK         0.0000
      2 N1          7.9880   -5.5580  -11.3750 N.pl3     1 UNK         0.0000
      3 N2          9.3040   -5.5370  -11.8530 N.2       1 UNK         0.0000
      4 N3          6.6650   -4.1410   -9.8630 N.am      1 UNK         0.0000
      5 N4          5.2540   -4.3880   -8.0200 N.am      1 UNK         0.0000
      6 N5          4.0780   -6.8690  -13.8850 N.pl3     1 UNK         0.0000
      7 C1         11.3460   -4.1050  -11.5930 C.3       1 UNK         0.0000
      8 C2          9.9140   -4.4990  -11.3380 C.2       1 UNK         0.0000
      9 C3         12.2550   -4.8030  -10.5800 C.3       1 UNK         0.0000
     10 C4         11.7450   -4.5210  -13.0100 C.3       1 UNK         0.0000
     11 C5         11.4900   -2.5880  -11.4480 C.3       1 UNK         0.0000
     12 C6          9.0110   -3.8170  -10.5180 C.2       1 UNK         0.0000
     13 C7          7.8290   -4.4890  -10.5480 C.2       1 UNK         0.0000
     14 C8          7.0090   -6.5100  -11.6910 C.ar      1 UNK         0.0000
     15 C9          6.0290   -6.2150  -12.6270 C.ar      1 UNK         0.0000
     16 C10         7.0170   -7.7500  -11.0630 C.ar      1 UNK         0.0000
     17 C11         6.3780   -4.7240   -8.6820 C.2       1 UNK         0.0000
     18 C12         5.0140   -4.9020   -6.7440 C.ar      1 UNK         0.0000
     19 C13         4.3560   -6.1400   -6.5860 C.ar      1 UNK         0.0000
     20 C14         5.0650   -7.1620  -12.9400 C.ar      1 UNK         0.0000
     21 C15         4.1230   -6.6410   -5.2820 C.ar      1 UNK         0.0000
     22 C16         6.0530   -8.6890  -11.3730 C.ar      1 UNK         0.0000
     23 C17         5.0780   -8.4010  -12.3080 C.ar      1 UNK         0.0000
     24 C18         5.4180   -4.2030   -5.6260 C.ar      1 UNK         0.0000
     25 C19         3.9280   -6.8830   -7.6960 C.ar      1 UNK         0.0000
     26 C20         4.5500   -5.8970   -4.1680 C.ar      1 UNK         0.0000
     27 C21         5.1830   -4.7060   -4.3500 C.ar      1 UNK         0.0000
     28 C22         3.4680   -7.8740   -5.1250 C.ar      1 UNK         0.0000
     29 C23         3.2960   -8.0750   -7.5080 C.ar      1 UNK         0.0000
     30 C24         3.0660   -8.5680   -6.2260 C.ar      1 UNK         0.0000
     31 H1         13.0130   -5.3800  -11.1100 H         1 UNK         0.0000
     32 H2         12.7410   -4.0550   -9.9520 H         1 UNK         0.0000
     33 H3         11.6610   -5.4690   -9.9560 H         1 UNK         0.0000
     34 H4         12.5360   -3.8630  -13.3720 H         1 UNK         0.0000
     35 H5         12.1040   -5.5500  -12.9990 H         1 UNK         0.0000
     36 H6         10.8800   -4.4450  -13.6680 H         1 UNK         0.0000
     37 H7         12.1790   -2.3650  -10.6330 H         1 UNK         0.0000
     38 H8         11.8790   -2.1690  -12.3760 H         1 UNK         0.0000
     39 H9         10.5170   -2.1490  -11.2300 H         1 UNK         0.0000
     40 H10         9.2180   -2.9160   -9.9580 H         1 UNK         0.0000
     41 H11         6.0610   -3.4790  -10.2360 H         1 UNK         0.0000
     42 H12         6.0190   -5.2500  -13.1120 H         1 UNK         0.0000
     43 H13         7.7770   -7.9780  -10.3310 H         1 UNK         0.0000
     44 H14         4.6100   -3.7890   -8.4290 H         1 UNK         0.0000
     45 H15         6.0610   -9.6520  -10.8840 H         1 UNK         0.0000
     46 H16         4.3260   -9.1370  -12.5490 H         1 UNK         0.0000
     47 H17         5.9220   -3.2550   -5.7430 H         1 UNK         0.0000
     48 H18         4.1000   -6.5120   -8.6970 H         1 UNK         0.0000
     49 H19         4.3740   -6.2700   -3.1700 H         1 UNK         0.0000
     50 H20         5.5080   -4.1400   -3.4890 H         1 UNK         0.0000
     51 H21         3.2830   -8.2700   -4.1370 H         1 UNK         0.0000
     52 H22         2.9690   -8.6450   -8.3650 H         1 UNK         0.0000
     53 H23         2.5620   -9.5160   -6.1030 H         1 UNK         0.0000
     54 H24         4.2040   -6.1340  -14.5050 H         1 UNK         0.0000
     55 H25         3.2690   -7.4030  -13.9220 H         1 UNK         0.0000
@<TRIPOS>BOND
     1    1   17 2
     2    2    3 1
     3    2   13 1
     4    2   14 1
     5    3    8 2
     6    4   13 1
     7    4   17 am
     8    4   41 1
     9    5   17 am
    10    5   18 1
    11    5   44 1
    12    6   20 1
    13    6   54 1
    14    6   55 1
    15    7    8 1
    16    7    9 1
    17    7   10 1
    18    7   11 1
    19    8   12 1
    20    9   31 1
    21    9   32 1
    22    9   33 1
    23   10   34 1
    24   10   35 1
    25   10   36 1
    26   11   37 1
    27   11   38 1
    28   11   39 1
    29   12   13 2
    30   12   40 1
    31   14   15 ar
    32   14   16 ar
    33   15   20 ar
    34   15   42 1
    35   16   22 ar
    36   16   43 1
    37   18   19 ar
    38   18   24 ar
    39   19   21 ar
    40   19   25 ar
    41   20   23 ar
    42   21   26 ar
    43   21   28 ar
    44   22   23 ar
    45   22   45 1
    46   23   46 1
    47   24   27 ar
    48   24   47 1
    49   25   29 ar
    50   25   48 1
    51   26   27 ar
    52   26   49 1
    53   27   50 1
    54   28   30 ar
    55   28   51 1
    56   29   30 ar
    57   29   52 1
    58   30   53 1
