@<TRIPOS>MOLECULE
10302451
   70    75     0     0     0
SMALL
NO_CHARGES

@<TRIPOS>ATOM
      1 Cl1         4.6620   -6.0110  -12.7400 Cl        1 UNK         0.0000
      2 O1          7.1260   -6.1250  -10.1210 O.3       1 UNK         0.0000
      3 O2         11.1620   -5.1950  -10.0410 O.3       1 UNK         0.0000
      4 O3          4.9740   -5.3270   -5.9600 O.3       1 UNK         0.0000
      5 O4          7.3750  -10.4580  -13.1310 O.3       1 UNK         0.0000
      6 O5          6.8550  -10.7950  -15.3090 O.3       1 UNK         0.0000
      7 N1          6.3970   -3.5250   -3.3350 N.3       1 UNK         0.0000
      8 N2          6.0700   -1.6270   -1.2370 N.3       1 UNK         0.0000
      9 N3          6.4040   -8.1000  -11.5420 N.pl3     1 UNK         0.0000
     10 N4          3.6390   -9.0250   -8.6470 N.ar      1 UNK         0.0000
     11 N5          4.6690   -9.4390  -10.6780 N.ar      1 UNK         0.0000
     12 C1          7.2030   -3.6150   -2.1090 C.3       1 UNK         0.0000
     13 C2          5.0800   -2.9360   -3.0540 C.3       1 UNK         0.0000
     14 C3          7.3880   -2.2150   -1.5190 C.3       1 UNK         0.0000
     15 C4          5.2650   -1.5370   -2.4630 C.3       1 UNK         0.0000
     16 C5          6.2600   -4.8410   -3.9730 C.3       1 UNK         0.0000
     17 C6          8.3770   -5.6360   -9.6340 C.3       1 UNK         0.0000
     18 C7          9.3940   -6.7810   -9.5950 C.3       1 UNK         0.0000
     19 C8          8.8960   -4.5380  -10.5680 C.3       1 UNK         0.0000
     20 C9          6.1480   -4.6630   -5.4890 C.3       1 UNK         0.0000
     21 C10         6.2070   -0.3120   -0.5990 C.3       1 UNK         0.0000
     22 C11        10.7520   -6.2320   -9.1480 C.3       1 UNK         0.0000
     23 C12        10.2740   -4.0760  -10.0830 C.3       1 UNK         0.0000
     24 C13         6.1970   -6.4720   -9.1940 C.ar      1 UNK         0.0000
     25 C14         5.1000   -6.0770   -7.0860 C.ar      1 UNK         0.0000
     26 C15         5.3770   -7.5940   -9.4000 C.ar      1 UNK         0.0000
     27 C16         6.0510   -5.7260   -8.0440 C.ar      1 UNK         0.0000
     28 C17         4.4100   -7.9480   -8.4270 C.ar      1 UNK         0.0000
     29 C18         4.2860   -7.1780   -7.2650 C.ar      1 UNK         0.0000
     30 C19         5.4810   -8.3940  -10.5600 C.ar      1 UNK         0.0000
     31 C20         6.0850   -8.3150  -12.8890 C.ar      1 UNK         0.0000
     32 C21         3.7800   -9.7320   -9.7430 C.ar      1 UNK         0.0000
     33 C22         6.5810   -9.4320  -13.5540 C.ar      1 UNK         0.0000
     34 C23         6.2570   -9.6400  -14.8900 C.ar      1 UNK         0.0000
     35 C24         5.2760   -7.4080  -13.5650 C.ar      1 UNK         0.0000
     36 C25         5.4490   -8.7310  -15.5570 C.ar      1 UNK         0.0000
     37 C26         4.9620   -7.6200  -14.8950 C.ar      1 UNK         0.0000
     38 C27         7.2070  -11.5040  -14.1060 C.3       1 UNK         0.0000
     39 H1          8.1780   -4.0410   -2.3460 H         1 UNK         0.0000
     40 H2          6.6940   -4.2510   -1.3850 H         1 UNK         0.0000
     41 H3          4.5470   -3.5650   -2.3410 H         1 UNK         0.0000
     42 H4          4.5080   -2.8680   -3.9790 H         1 UNK         0.0000
     43 H5          7.9220   -1.5870   -2.2330 H         1 UNK         0.0000
     44 H6          7.9600   -2.2830   -0.5940 H         1 UNK         0.0000
     45 H7          4.2900   -1.1100   -2.2270 H         1 UNK         0.0000
     46 H8          5.7740   -0.9010   -3.1870 H         1 UNK         0.0000
     47 H9          7.1360   -5.4490   -3.7440 H         1 UNK         0.0000
     48 H10         5.3650   -5.3350   -3.5980 H         1 UNK         0.0000
     49 H11         8.2450   -5.2300   -8.6300 H         1 UNK         0.0000
     50 H12         9.0580   -7.5420   -8.8900 H         1 UNK         0.0000
     51 H13         9.4880   -7.2200  -10.5880 H         1 UNK         0.0000
     52 H14         8.9800   -4.9320  -11.5810 H         1 UNK         0.0000
     53 H15         8.2060   -3.6960  -10.5590 H         1 UNK         0.0000
     54 H16         6.0850   -3.6020   -5.7260 H         1 UNK         0.0000
     55 H17         7.0260   -5.0910   -5.9710 H         1 UNK         0.0000
     56 H18         5.2230    0.0540   -0.3080 H         1 UNK         0.0000
     57 H19         6.8370   -0.4010    0.2860 H         1 UNK         0.0000
     58 H20         6.6630    0.3870   -1.3000 H         1 UNK         0.0000
     59 H21        10.6670   -5.8300   -8.1370 H         1 UNK         0.0000
     60 H22        11.4900   -7.0340   -9.1580 H         1 UNK         0.0000
     61 H23        10.1820   -3.6470   -9.0860 H         1 UNK         0.0000
     62 H24        10.6670   -3.3250  -10.7690 H         1 UNK         0.0000
     63 H25         6.6800   -4.8630   -7.8830 H         1 UNK         0.0000
     64 H26         3.5570   -7.4420   -6.5150 H         1 UNK         0.0000
     65 H27         7.2740   -7.7460  -11.3000 H         1 UNK         0.0000
     66 H28         3.1430  -10.5920   -9.8880 H         1 UNK         0.0000
     67 H29         5.2010   -8.8910  -16.5950 H         1 UNK         0.0000
     68 H30         4.3330   -6.9150  -15.4180 H         1 UNK         0.0000
     69 H31         6.4030  -12.1770  -13.8100 H         1 UNK         0.0000
     70 H32         8.1370  -12.0550  -14.2450 H         1 UNK         0.0000
@<TRIPOS>BOND
     1    1   35 1
     2    2   17 1
     3    2   24 1
     4    3   22 1
     5    3   23 1
     6    4   20 1
     7    4   25 1
     8    5   33 1
     9    5   38 1
    10    6   34 1
    11    6   38 1
    12    7   12 1
    13    7   13 1
    14    7   16 1
    15    8   14 1
    16    8   15 1
    17    8   21 1
    18    9   30 1
    19    9   31 1
    20    9   65 1
    21   10   28 ar
    22   10   32 ar
    23   11   30 ar
    24   11   32 ar
    25   12   14 1
    26   12   39 1
    27   12   40 1
    28   13   15 1
    29   13   41 1
    30   13   42 1
    31   14   43 1
    32   14   44 1
    33   15   45 1
    34   15   46 1
    35   16   20 1
    36   16   47 1
    37   16   48 1
    38   17   18 1
    39   17   19 1
    40   17   49 1
    41   18   22 1
    42   18   50 1
    43   18   51 1
    44   19   23 1
    45   19   52 1
    46   19   53 1
    47   20   54 1
    48   20   55 1
    49   21   56 1
    50   21   57 1
    51   21   58 1
    52   22   59 1
    53   22   60 1
    54   23   61 1
    55   23   62 1
    56   24   26 ar
    57   24   27 ar
    58   25   27 ar
    59   25   29 ar
    60   26   28 ar
    61   26   30 ar
    62   27   63 1
    63   28   29 ar
    64   29   64 1
    65   31   33 ar
    66   31   35 ar
    67   32   66 1
    68   33   34 ar
    69   34   36 ar
    70   35   37 ar
    71   36   37 ar
    72   36   67 1
    73   37   68 1
    74   38   69 1
    75   38   70 1
