@<TRIPOS>MOLECULE
10302451
   70    75     0     0     0
SMALL
NO_CHARGES

@<TRIPOS>ATOM
      1 Cl1         9.4030   -6.6980   -9.1820 Cl        1 UNK         0.0000
      2 O1          6.5950   -4.8390   -8.5150 O.3       1 UNK         0.0000
      3 O2          5.9920   -4.5110   -4.4300 O.3       1 UNK         0.0000
      4 O3          3.0020   -7.4640  -10.1820 O.3       1 UNK         0.0000
      5 O4         10.2830   -1.8100  -10.8030 O.3       1 UNK         0.0000
      6 O5         12.5380   -1.9820  -10.6730 O.3       1 UNK         0.0000
      7 N1          2.7570   -8.9460   -8.0610 N.3       1 UNK         0.0000
      8 N2          2.1860   -8.5850   -5.2950 N.3       1 UNK         0.0000
      9 N3          8.4100   -4.0530  -10.1060 N.pl3     1 UNK         0.0000
     10 N4          6.4200   -5.9760  -13.1430 N.ar      1 UNK         0.0000
     11 N5          8.1830   -4.6970  -12.3600 N.ar      1 UNK         0.0000
     12 C1          3.8330   -8.6500   -7.1060 C.3       1 UNK         0.0000
     13 C2          1.6730   -9.7000   -7.4140 C.3       1 UNK         0.0000
     14 C3          3.2690   -7.8310   -5.9430 C.3       1 UNK         0.0000
     15 C4          1.1090   -8.8810   -6.2510 C.3       1 UNK         0.0000
     16 C5          3.2740   -9.6690   -9.2310 C.3       1 UNK         0.0000
     17 C6          6.1330   -5.1560   -7.2010 C.3       1 UNK         0.0000
     18 C7          7.3310   -5.3340   -6.2650 C.3       1 UNK         0.0000
     19 C8          5.2540   -4.0150   -6.6780 C.3       1 UNK         0.0000
     20 C9          2.9930   -8.8580  -10.4970 C.3       1 UNK         0.0000
     21 C10         1.6680   -7.8630   -4.1260 C.3       1 UNK         0.0000
     22 C11         6.8250   -5.5950   -4.8430 C.3       1 UNK         0.0000
     23 C12         4.8290   -4.3270   -5.2400 C.3       1 UNK         0.0000
     24 C13         5.9750   -5.4580   -9.5520 C.ar      1 UNK         0.0000
     25 C14         4.1580   -6.7880  -10.4080 C.ar      1 UNK         0.0000
     26 C15         6.5270   -5.3980  -10.8430 C.ar      1 UNK         0.0000
     27 C16         4.8010   -6.1490   -9.3470 C.ar      1 UNK         0.0000
     28 C17         5.8730   -6.0470  -11.9190 C.ar      1 UNK         0.0000
     29 C18         4.6850   -6.7470  -11.6830 C.ar      1 UNK         0.0000
     30 C19         7.7280   -4.7040  -11.1130 C.ar      1 UNK         0.0000
     31 C20         9.8050   -4.1530  -10.0270 C.ar      1 UNK         0.0000
     32 C21         7.5380   -5.3170  -13.3350 C.ar      1 UNK         0.0000
     33 C22        10.6020   -3.0660  -10.3740 C.ar      1 UNK         0.0000
     34 C23        11.9860   -3.1700  -10.2890 C.ar      1 UNK         0.0000
     35 C24        10.3950   -5.3400   -9.6080 C.ar      1 UNK         0.0000
     36 C25        12.5670   -4.3580   -9.8690 C.ar      1 UNK         0.0000
     37 C26        11.7720   -5.4370   -9.5300 C.ar      1 UNK         0.0000
     38 C27        11.4690   -1.0190  -10.5970 C.3       1 UNK         0.0000
     39 H1          4.6160   -8.0800   -7.6060 H         1 UNK         0.0000
     40 H2          4.2480   -9.5830   -6.7250 H         1 UNK         0.0000
     41 H3          2.0640  -10.6450   -7.0370 H         1 UNK         0.0000
     42 H4          0.8830   -9.8960   -8.1380 H         1 UNK         0.0000
     43 H5          2.8780   -6.8850   -6.3210 H         1 UNK         0.0000
     44 H6          4.0590   -7.6350   -5.2190 H         1 UNK         0.0000
     45 H7          0.3260   -9.4500   -5.7510 H         1 UNK         0.0000
     46 H8          0.6940   -7.9470   -6.6310 H         1 UNK         0.0000
     47 H9          4.3500   -9.8110   -9.1230 H         1 UNK         0.0000
     48 H10         2.7850  -10.6390   -9.3040 H         1 UNK         0.0000
     49 H11         5.5520   -6.0790   -7.2300 H         1 UNK         0.0000
     50 H12         7.9320   -6.1800   -6.5990 H         1 UNK         0.0000
     51 H13         7.9390   -4.4290   -6.2750 H         1 UNK         0.0000
     52 H14         5.8210   -3.0830   -6.6960 H         1 UNK         0.0000
     53 H15         4.3700   -3.9180   -7.3070 H         1 UNK         0.0000
     54 H16         3.7610   -9.0670  -11.2410 H         1 UNK         0.0000
     55 H17         2.0170   -9.1340  -10.8960 H         1 UNK         0.0000
     56 H18         1.4760   -8.5690   -3.3190 H         1 UNK         0.0000
     57 H19         2.4030   -7.1280   -3.7980 H         1 UNK         0.0000
     58 H20         0.7420   -7.3540   -4.3940 H         1 UNK         0.0000
     59 H21         6.2520   -6.5220   -4.8260 H         1 UNK         0.0000
     60 H22         7.6740   -5.6800   -4.1650 H         1 UNK         0.0000
     61 H23         4.2300   -5.2370   -5.2290 H         1 UNK         0.0000
     62 H24         4.2390   -3.4980   -4.8480 H         1 UNK         0.0000
     63 H25         4.3740   -6.1960   -8.3560 H         1 UNK         0.0000
     64 H26         4.1800   -7.2490  -12.4950 H         1 UNK         0.0000
     65 H27         7.9240   -3.5280   -9.4510 H         1 UNK         0.0000
     66 H28         7.9510   -5.2780  -14.3320 H         1 UNK         0.0000
     67 H29        13.6410   -4.4400   -9.8080 H         1 UNK         0.0000
     68 H30        12.2280   -6.3600   -9.2040 H         1 UNK         0.0000
     69 H31        11.4490   -0.5470   -9.6150 H         1 UNK         0.0000
     70 H32        11.5730   -0.2690  -11.3800 H         1 UNK         0.0000
@<TRIPOS>BOND
     1    1   35 1
     2    2   17 1
     3    2   24 1
     4    3   22 1
     5    3   23 1
     6    4   20 1
     7    4   25 1
     8    5   33 1
     9    5   38 1
    10    6   34 1
    11    6   38 1
    12    7   12 1
    13    7   13 1
    14    7   16 1
    15    8   14 1
    16    8   15 1
    17    8   21 1
    18    9   30 1
    19    9   31 1
    20    9   65 1
    21   10   28 ar
    22   10   32 ar
    23   11   30 ar
    24   11   32 ar
    25   12   14 1
    26   12   39 1
    27   12   40 1
    28   13   15 1
    29   13   41 1
    30   13   42 1
    31   14   43 1
    32   14   44 1
    33   15   45 1
    34   15   46 1
    35   16   20 1
    36   16   47 1
    37   16   48 1
    38   17   18 1
    39   17   19 1
    40   17   49 1
    41   18   22 1
    42   18   50 1
    43   18   51 1
    44   19   23 1
    45   19   52 1
    46   19   53 1
    47   20   54 1
    48   20   55 1
    49   21   56 1
    50   21   57 1
    51   21   58 1
    52   22   59 1
    53   22   60 1
    54   23   61 1
    55   23   62 1
    56   24   26 ar
    57   24   27 ar
    58   25   27 ar
    59   25   29 ar
    60   26   28 ar
    61   26   30 ar
    62   27   63 1
    63   28   29 ar
    64   29   64 1
    65   31   33 ar
    66   31   35 ar
    67   32   66 1
    68   33   34 ar
    69   34   36 ar
    70   35   37 ar
    71   36   37 ar
    72   36   67 1
    73   37   68 1
    74   38   69 1
    75   38   70 1
