@<TRIPOS>MOLECULE
10302451
   70    75     0     0     0
SMALL
NO_CHARGES

@<TRIPOS>ATOM
      1 Cl1        12.1440   -4.9940   -9.5100 Cl        1 UNK         0.0000
      2 O1          7.7310   -4.2690   -9.9320 O.3       1 UNK         0.0000
      3 O2          5.0770   -4.7350   -6.7850 O.3       1 UNK         0.0000
      4 O3          5.7580   -6.3210  -13.7380 O.3       1 UNK         0.0000
      5 O4         10.2360   -0.1340   -9.6790 O.3       1 UNK         0.0000
      6 O5         12.0900    0.8180   -8.7910 O.3       1 UNK         0.0000
      7 N1          3.9780   -8.3490  -11.2850 N.3       1 UNK         0.0000
      8 N2          3.8310   -8.4710   -8.4440 N.3       1 UNK         0.0000
      9 N3          9.9630   -3.0850  -10.1680 N.pl3     1 UNK         0.0000
     10 N4          9.9450   -4.0920  -14.1520 N.ar      1 UNK         0.0000
     11 N5         10.9300   -3.0840  -12.3160 N.ar      1 UNK         0.0000
     12 C1          3.9500   -7.1190  -10.4820 C.3       1 UNK         0.0000
     13 C2          4.6240   -9.4440  -10.5460 C.3       1 UNK         0.0000
     14 C3          3.1840   -7.3770   -9.1830 C.3       1 UNK         0.0000
     15 C4          3.8580   -9.7020   -9.2470 C.3       1 UNK         0.0000
     16 C5          4.6410   -8.1220  -12.5750 C.3       1 UNK         0.0000
     17 C6          6.6010   -4.7360   -9.1920 C.3       1 UNK         0.0000
     18 C7          7.0780   -5.4600   -7.9290 C.3       1 UNK         0.0000
     19 C8          5.7270   -3.5450   -8.7860 C.3       1 UNK         0.0000
     20 C9          4.6490   -6.6240  -12.8880 C.3       1 UNK         0.0000
     21 C10         3.1680   -8.6990   -7.1540 C.3       1 UNK         0.0000
     22 C11         5.8610   -5.8860   -7.1030 C.3       1 UNK         0.0000
     23 C12         4.5630   -4.0460   -7.9270 C.3       1 UNK         0.0000
     24 C13         7.7710   -4.5770  -11.2540 C.ar      1 UNK         0.0000
     25 C14         6.7800   -5.6140  -13.1890 C.ar      1 UNK         0.0000
     26 C15         8.8600   -4.1680  -12.0420 C.ar      1 UNK         0.0000
     27 C16         6.7450   -5.2930  -11.8320 C.ar      1 UNK         0.0000
     28 C17         8.8930   -4.4940  -13.4200 C.ar      1 UNK         0.0000
     29 C18         7.8420   -5.2270  -13.9810 C.ar      1 UNK         0.0000
     30 C19         9.9390   -3.4320  -11.5030 C.ar      1 UNK         0.0000
     31 C20        11.1060   -2.4910   -9.6190 C.ar      1 UNK         0.0000
     32 C21        10.9200   -3.4100  -13.5980 C.ar      1 UNK         0.0000
     33 C22        11.1540   -1.1130   -9.4300 C.ar      1 UNK         0.0000
     34 C23        12.2900   -0.5310   -8.8800 C.ar      1 UNK         0.0000
     35 C24        12.1980   -3.2770   -9.2680 C.ar      1 UNK         0.0000
     36 C25        13.3740   -1.3220   -8.5320 C.ar      1 UNK         0.0000
     37 C26        13.3260   -2.6900   -8.7260 C.ar      1 UNK         0.0000
     38 C27        10.6660    1.0030   -8.9080 C.3       1 UNK         0.0000
     39 H1          3.4560   -6.3280  -11.0450 H         1 UNK         0.0000
     40 H2          4.9710   -6.8150  -10.2480 H         1 UNK         0.0000
     41 H3          5.6520   -9.1660  -10.3130 H         1 UNK         0.0000
     42 H4          4.6200  -10.3460  -11.1570 H         1 UNK         0.0000
     43 H5          2.1550   -7.6550   -9.4170 H         1 UNK         0.0000
     44 H6          3.1880   -6.4750   -8.5720 H         1 UNK         0.0000
     45 H7          4.3520  -10.4930   -8.6840 H         1 UNK         0.0000
     46 H8          2.8370  -10.0060   -9.4810 H         1 UNK         0.0000
     47 H9          5.6670   -8.4870  -12.5250 H         1 UNK         0.0000
     48 H10         4.1040   -8.6530  -13.3590 H         1 UNK         0.0000
     49 H11         6.0190   -5.4230   -9.8080 H         1 UNK         0.0000
     50 H12         7.6550   -6.3410   -8.2110 H         1 UNK         0.0000
     51 H13         7.7020   -4.7890   -7.3390 H         1 UNK         0.0000
     52 H14         6.3240   -2.8350   -8.2120 H         1 UNK         0.0000
     53 H15         5.3380   -3.0580   -9.6790 H         1 UNK         0.0000
     54 H16         3.7220   -6.3530  -13.3900 H         1 UNK         0.0000
     55 H17         4.7380   -6.0600  -11.9600 H         1 UNK         0.0000
     56 H18         2.4550   -9.5170   -7.2510 H         1 UNK         0.0000
     57 H19         3.9140   -8.9570   -6.4020 H         1 UNK         0.0000
     58 H20         2.6440   -7.7940   -6.8490 H         1 UNK         0.0000
     59 H21         5.2600   -6.5900   -7.6800 H         1 UNK         0.0000
     60 H22         6.1960   -6.3640   -6.1830 H         1 UNK         0.0000
     61 H23         3.9440   -4.7240   -8.5140 H         1 UNK         0.0000
     62 H24         3.9620   -3.1970   -7.5990 H         1 UNK         0.0000
     63 H25         5.9070   -5.6090  -11.2280 H         1 UNK         0.0000
     64 H26         7.8590   -5.4850  -15.0300 H         1 UNK         0.0000
     65 H27         9.1890   -3.2550   -9.6090 H         1 UNK         0.0000
     66 H28        11.7500   -3.1020  -14.2160 H         1 UNK         0.0000
     67 H29        14.2580   -0.8690   -8.1090 H         1 UNK         0.0000
     68 H30        14.1730   -3.3020   -8.4530 H         1 UNK         0.0000
     69 H31        10.1980    0.9980   -7.9230 H         1 UNK         0.0000
     70 H32        10.4430    1.9320   -9.4320 H         1 UNK         0.0000
@<TRIPOS>BOND
     1    1   35 1
     2    2   17 1
     3    2   24 1
     4    3   22 1
     5    3   23 1
     6    4   20 1
     7    4   25 1
     8    5   33 1
     9    5   38 1
    10    6   34 1
    11    6   38 1
    12    7   12 1
    13    7   13 1
    14    7   16 1
    15    8   14 1
    16    8   15 1
    17    8   21 1
    18    9   30 1
    19    9   31 1
    20    9   65 1
    21   10   28 ar
    22   10   32 ar
    23   11   30 ar
    24   11   32 ar
    25   12   14 1
    26   12   39 1
    27   12   40 1
    28   13   15 1
    29   13   41 1
    30   13   42 1
    31   14   43 1
    32   14   44 1
    33   15   45 1
    34   15   46 1
    35   16   20 1
    36   16   47 1
    37   16   48 1
    38   17   18 1
    39   17   19 1
    40   17   49 1
    41   18   22 1
    42   18   50 1
    43   18   51 1
    44   19   23 1
    45   19   52 1
    46   19   53 1
    47   20   54 1
    48   20   55 1
    49   21   56 1
    50   21   57 1
    51   21   58 1
    52   22   59 1
    53   22   60 1
    54   23   61 1
    55   23   62 1
    56   24   26 ar
    57   24   27 ar
    58   25   27 ar
    59   25   29 ar
    60   26   28 ar
    61   26   30 ar
    62   27   63 1
    63   28   29 ar
    64   29   64 1
    65   31   33 ar
    66   31   35 ar
    67   32   66 1
    68   33   34 ar
    69   34   36 ar
    70   35   37 ar
    71   36   37 ar
    72   36   67 1
    73   37   68 1
    74   38   69 1
    75   38   70 1
