@<TRIPOS>MOLECULE
5328940
   65    68     0     0     0
SMALL
NO_CHARGES

@<TRIPOS>ATOM
      1 Cl1         7.1700   -3.8950   -5.7420 Cl        1 UNK         0.0000
      2 Cl2         7.2920    1.4510   -6.5030 Cl        1 UNK         0.0000
      3 O1         -1.2730   -2.6160   -1.9590 O.3       1 UNK         0.0000
      4 O2         -0.3940   -2.5970   -4.5620 O.3       1 UNK         0.0000
      5 O3          4.7280    1.3940   -5.0390 O.3       1 UNK         0.0000
      6 N1         -1.9600   -5.7740    1.3190 N.3       1 UNK         0.0000
      7 N2         -0.6000   -5.7660    3.8210 N.3       1 UNK         0.0000
      8 N3          4.5940   -3.3480   -4.3620 N.pl3     1 UNK         0.0000
      9 N4          3.1670   -3.3680   -0.4550 N.ar      1 UNK         0.0000
     10 N5          7.4900   -3.8950   -2.3540 N.1       1 UNK         0.0000
     11 C1         -2.7050   -5.9090    2.5790 C.3       1 UNK         0.0000
     12 C2         -0.7480   -4.9650    1.5120 C.3       1 UNK         0.0000
     13 C3         -1.8120   -6.5750    3.6280 C.3       1 UNK         0.0000
     14 C4          0.1450   -5.6310    2.5610 C.3       1 UNK         0.0000
     15 C5         -2.8090   -5.2070    0.2640 C.3       1 UNK         0.0000
     16 C6         -2.2850   -3.8240   -0.1270 C.3       1 UNK         0.0000
     17 C7          0.2490   -6.3320    4.8760 C.3       1 UNK         0.0000
     18 C8         -2.0360   -3.7800   -1.6350 C.3       1 UNK         0.0000
     19 C9          0.0470   -2.7970   -2.2240 C.ar      1 UNK         0.0000
     20 C10         0.4960   -2.7870   -3.5510 C.ar      1 UNK         0.0000
     21 C11         2.7390   -3.1630   -2.7990 C.ar      1 UNK         0.0000
     22 C12         0.9300   -2.9870   -1.1840 C.ar      1 UNK         0.0000
     23 C13         2.2940   -3.1740   -1.4550 C.ar      1 UNK         0.0000
     24 C14         1.8180   -2.9670   -3.8400 C.ar      1 UNK         0.0000
     25 C15         4.1140   -3.3510   -3.0680 C.ar      1 UNK         0.0000
     26 C16         4.9740   -3.5420   -1.9770 C.ar      1 UNK         0.0000
     27 C17         4.4460   -3.5390   -0.6750 C.ar      1 UNK         0.0000
     28 C18         5.2310   -2.2100   -4.8680 C.ar      1 UNK         0.0000
     29 C19         4.6560   -0.9590   -4.6990 C.ar      1 UNK         0.0000
     30 C20         0.0710   -1.8810   -5.7090 C.3       1 UNK         0.0000
     31 C21         6.4450   -2.3310   -5.5360 C.ar      1 UNK         0.0000
     32 C22         5.2890    0.1670   -5.2020 C.ar      1 UNK         0.0000
     33 C23         6.3780   -3.7380   -2.1870 C.1       1 UNK         0.0000
     34 C24         7.0710   -1.2070   -6.0410 C.ar      1 UNK         0.0000
     35 C25         6.4980    0.0400   -5.8730 C.ar      1 UNK         0.0000
     36 C26         4.9760    2.0620   -3.8000 C.3       1 UNK         0.0000
     37 H1         -3.0070   -4.9220    2.9310 H         1 UNK         0.0000
     38 H2         -3.5910   -6.5220    2.4130 H         1 UNK         0.0000
     39 H3         -0.2080   -4.8910    0.5680 H         1 UNK         0.0000
     40 H4         -1.0270   -3.9680    1.8510 H         1 UNK         0.0000
     41 H5         -1.5330   -7.5720    3.2880 H         1 UNK         0.0000
     42 H6         -2.3520   -6.6500    4.5720 H         1 UNK         0.0000
     43 H7          0.4460   -6.6180    2.2090 H         1 UNK         0.0000
     44 H8          1.0300   -5.0180    2.7260 H         1 UNK         0.0000
     45 H9         -3.8320   -5.1180    0.6300 H         1 UNK         0.0000
     46 H10        -2.7920   -5.8610   -0.6080 H         1 UNK         0.0000
     47 H11        -1.3520   -3.6270    0.4010 H         1 UNK         0.0000
     48 H12        -3.0210   -3.0660    0.1420 H         1 UNK         0.0000
     49 H13         0.9740   -5.5860    5.2000 H         1 UNK         0.0000
     50 H14        -0.3710   -6.6260    5.7230 H         1 UNK         0.0000
     51 H15         0.7740   -7.2060    4.4900 H         1 UNK         0.0000
     52 H16        -2.9910   -3.7460   -2.1600 H         1 UNK         0.0000
     53 H17        -1.4860   -4.6710   -1.9400 H         1 UNK         0.0000
     54 H18         0.5730   -2.9930   -0.1650 H         1 UNK         0.0000
     55 H19         2.1560   -2.9580   -4.8660 H         1 UNK         0.0000
     56 H20         4.4900   -4.1340   -4.9210 H         1 UNK         0.0000
     57 H21         5.1090   -3.6860    0.1630 H         1 UNK         0.0000
     58 H22         3.7150   -0.8620   -4.1780 H         1 UNK         0.0000
     59 H23         0.2010   -2.5730   -6.5410 H         1 UNK         0.0000
     60 H24        -0.6590   -1.1190   -5.9810 H         1 UNK         0.0000
     61 H25         1.0250   -1.4070   -5.4780 H         1 UNK         0.0000
     62 H26         8.0130   -1.3030   -6.5630 H         1 UNK         0.0000
     63 H27         4.0410    2.1640   -3.2490 H         1 UNK         0.0000
     64 H28         5.6840    1.4810   -3.2100 H         1 UNK         0.0000
     65 H29         5.3920    3.0500   -3.9980 H         1 UNK         0.0000
@<TRIPOS>BOND
     1    1   31 1
     2    2   35 1
     3    3   18 1
     4    3   19 1
     5    4   20 1
     6    4   30 1
     7    5   32 1
     8    5   36 1
     9    6   11 1
    10    6   12 1
    11    6   15 1
    12    7   13 1
    13    7   14 1
    14    7   17 1
    15    8   25 1
    16    8   28 1
    17    8   56 1
    18    9   23 ar
    19    9   27 ar
    20   10   33 3
    21   11   13 1
    22   11   37 1
    23   11   38 1
    24   12   14 1
    25   12   39 1
    26   12   40 1
    27   13   41 1
    28   13   42 1
    29   14   43 1
    30   14   44 1
    31   15   16 1
    32   15   45 1
    33   15   46 1
    34   16   18 1
    35   16   47 1
    36   16   48 1
    37   17   49 1
    38   17   50 1
    39   17   51 1
    40   18   52 1
    41   18   53 1
    42   19   20 ar
    43   19   22 ar
    44   20   24 ar
    45   21   23 ar
    46   21   24 ar
    47   21   25 ar
    48   22   23 ar
    49   22   54 1
    50   24   55 1
    51   25   26 ar
    52   26   27 ar
    53   26   33 1
    54   27   57 1
    55   28   29 ar
    56   28   31 ar
    57   29   32 ar
    58   29   58 1
    59   30   59 1
    60   30   60 1
    61   30   61 1
    62   31   34 ar
    63   32   35 ar
    64   34   35 ar
    65   34   62 1
    66   36   63 1
    67   36   64 1
    68   36   65 1
