@<TRIPOS>MOLECULE
5328940
   65    68     0     0     0
SMALL
NO_CHARGES

@<TRIPOS>ATOM
      1 Cl1         3.6290   -0.5360   -4.2220 Cl        1 UNK         0.0000
      2 Cl2         2.1950   -4.2310   -7.8910 Cl        1 UNK         0.0000
      3 O1         -1.0240   -5.4690    2.1830 O.3       1 UNK         0.0000
      4 O2         -1.8490   -3.7530    0.2030 O.3       1 UNK         0.0000
      5 O3          1.0490   -5.6340   -5.5590 O.3       1 UNK         0.0000
      6 N1          0.2140   -7.0750    5.7680 N.3       1 UNK         0.0000
      7 N2          2.6250   -7.8680    7.0600 N.3       1 UNK         0.0000
      8 N3          2.3210   -2.3750   -2.2850 N.pl3     1 UNK         0.0000
      9 N4          3.4730   -4.9880    0.7390 N.ar      1 UNK         0.0000
     10 N5          5.8620   -2.6330   -2.6250 N.1       1 UNK         0.0000
     11 C1          0.7020   -8.4580    5.6640 C.3       1 UNK         0.0000
     12 C2          0.6110   -6.4760    7.0490 C.3       1 UNK         0.0000
     13 C3          2.2270   -8.4690    5.7780 C.3       1 UNK         0.0000
     14 C4          2.1370   -6.4860    7.1630 C.3       1 UNK         0.0000
     15 C5         -1.2420   -7.0160    5.5870 C.3       1 UNK         0.0000
     16 C6         -1.5650   -6.8340    4.1030 C.3       1 UNK         0.0000
     17 C7          4.0810   -7.9280    7.2410 C.3       1 UNK         0.0000
     18 C8         -0.5620   -5.8640    3.4760 C.3       1 UNK         0.0000
     19 C9         -0.1080   -4.9270    1.3390 C.ar      1 UNK         0.0000
     20 C10        -0.5280   -4.0520    0.3280 C.ar      1 UNK         0.0000
     21 C11         1.7390   -3.8020   -0.4030 C.ar      1 UNK         0.0000
     22 C12         1.2240   -5.2440    1.4860 C.ar      1 UNK         0.0000
     23 C13         2.1720   -4.6860    0.6150 C.ar      1 UNK         0.0000
     24 C14         0.3750   -3.4960   -0.5300 C.ar      1 UNK         0.0000
     25 C15         2.6970   -3.2410   -1.2780 C.ar      1 UNK         0.0000
     26 C16         4.0410   -3.5940   -1.0900 C.ar      1 UNK         0.0000
     27 C17         4.3820   -4.4790   -0.0540 C.ar      1 UNK         0.0000
     28 C18         2.2900   -2.8160   -3.6120 C.ar      1 UNK         0.0000
     29 C19         1.6770   -4.0200   -3.9290 C.ar      1 UNK         0.0000
     30 C20        -2.3830   -3.7220   -1.1230 C.3       1 UNK         0.0000
     31 C21         2.8680   -2.0470   -4.6150 C.ar      1 UNK         0.0000
     32 C22         1.6480   -4.4550   -5.2450 C.ar      1 UNK         0.0000
     33 C23         5.0570   -3.0580   -1.9460 C.1       1 UNK         0.0000
     34 C24         2.8420   -2.4860   -5.9260 C.ar      1 UNK         0.0000
     35 C25         2.2310   -3.6860   -6.2420 C.ar      1 UNK         0.0000
     36 C26        -0.3490   -5.5930   -5.8570 C.3       1 UNK         0.0000
     37 H1          0.2720   -9.0570    6.4680 H         1 UNK         0.0000
     38 H2          0.4060   -8.8770    4.7020 H         1 UNK         0.0000
     39 H3          0.2500   -5.4480    7.0960 H         1 UNK         0.0000
     40 H4          0.1810   -7.0500    7.8680 H         1 UNK         0.0000
     41 H5          2.6570   -7.8940    4.9580 H         1 UNK         0.0000
     42 H6          2.5890   -9.4960    5.7310 H         1 UNK         0.0000
     43 H7          2.5660   -5.8880    6.3590 H         1 UNK         0.0000
     44 H8          2.4320   -6.0670    8.1250 H         1 UNK         0.0000
     45 H9         -1.6440   -6.1750    6.1520 H         1 UNK         0.0000
     46 H10        -1.6910   -7.9420    5.9450 H         1 UNK         0.0000
     47 H11        -2.5730   -6.4330    3.9970 H         1 UNK         0.0000
     48 H12        -1.5040   -7.7980    3.5960 H         1 UNK         0.0000
     49 H13         4.4990   -8.6830    6.5760 H         1 UNK         0.0000
     50 H14         4.5170   -6.9570    7.0080 H         1 UNK         0.0000
     51 H15         4.3070   -8.1900    8.2750 H         1 UNK         0.0000
     52 H16         0.4060   -6.3540    3.3820 H         1 UNK         0.0000
     53 H17        -0.4640   -4.9830    4.1110 H         1 UNK         0.0000
     54 H18         1.5370   -5.9200    2.2670 H         1 UNK         0.0000
     55 H19         0.0430   -2.8220   -1.3060 H         1 UNK         0.0000
     56 H20         2.0790   -1.4600   -2.0730 H         1 UNK         0.0000
     57 H21         5.4160   -4.7500    0.0900 H         1 UNK         0.0000
     58 H22         1.2240   -4.6180   -3.1520 H         1 UNK         0.0000
     59 H23        -2.6070   -2.6920   -1.4010 H         1 UNK         0.0000
     60 H24        -1.6530   -4.1360   -1.8180 H         1 UNK         0.0000
     61 H25        -3.2980   -4.3140   -1.1590 H         1 UNK         0.0000
     62 H26         3.2950   -1.8880   -6.7040 H         1 UNK         0.0000
     63 H27        -0.8040   -6.5480   -5.5950 H         1 UNK         0.0000
     64 H28        -0.8190   -4.7950   -5.2830 H         1 UNK         0.0000
     65 H29        -0.4870   -5.4050   -6.9220 H         1 UNK         0.0000
@<TRIPOS>BOND
     1    1   31 1
     2    2   35 1
     3    3   18 1
     4    3   19 1
     5    4   20 1
     6    4   30 1
     7    5   32 1
     8    5   36 1
     9    6   11 1
    10    6   12 1
    11    6   15 1
    12    7   13 1
    13    7   14 1
    14    7   17 1
    15    8   25 1
    16    8   28 1
    17    8   56 1
    18    9   23 ar
    19    9   27 ar
    20   10   33 3
    21   11   13 1
    22   11   37 1
    23   11   38 1
    24   12   14 1
    25   12   39 1
    26   12   40 1
    27   13   41 1
    28   13   42 1
    29   14   43 1
    30   14   44 1
    31   15   16 1
    32   15   45 1
    33   15   46 1
    34   16   18 1
    35   16   47 1
    36   16   48 1
    37   17   49 1
    38   17   50 1
    39   17   51 1
    40   18   52 1
    41   18   53 1
    42   19   20 ar
    43   19   22 ar
    44   20   24 ar
    45   21   23 ar
    46   21   24 ar
    47   21   25 ar
    48   22   23 ar
    49   22   54 1
    50   24   55 1
    51   25   26 ar
    52   26   27 ar
    53   26   33 1
    54   27   57 1
    55   28   29 ar
    56   28   31 ar
    57   29   32 ar
    58   29   58 1
    59   30   59 1
    60   30   60 1
    61   30   61 1
    62   31   34 ar
    63   32   35 ar
    64   34   35 ar
    65   34   62 1
    66   36   63 1
    67   36   64 1
    68   36   65 1
