@<TRIPOS>MOLECULE
5328940
   65    68     0     0     0
SMALL
NO_CHARGES

@<TRIPOS>ATOM
      1 Cl1        -8.1400   -3.7190   -0.7150 Cl        1 UNK         0.0000
      2 Cl2        -8.3100   -7.6770   -4.3860 Cl        1 UNK         0.0000
      3 O1          1.1090   -3.2120   -1.2470 O.3       1 UNK         0.0000
      4 O2         -0.9420   -2.1680   -2.7470 O.3       1 UNK         0.0000
      5 O3         -5.3710   -7.6310   -4.1010 O.3       1 UNK         0.0000
      6 N1          5.4240   -5.1990   -0.8480 N.3       1 UNK         0.0000
      7 N2          7.4400   -4.5900    1.0680 N.3       1 UNK         0.0000
      8 N3         -5.1970   -4.1140   -0.8510 N.pl3     1 UNK         0.0000
      9 N4         -2.0250   -5.6370    1.3680 N.ar      1 UNK         0.0000
     10 N5         -6.7340   -6.2370    1.5670 N.1       1 UNK         0.0000
     11 C1          5.0670   -4.8760    0.5410 C.3       1 UNK         0.0000
     12 C2          6.6530   -4.4990   -1.2490 C.3       1 UNK         0.0000
     13 C3          6.2110   -5.2890    1.4690 C.3       1 UNK         0.0000
     14 C4          7.7970   -4.9120   -0.3210 C.3       1 UNK         0.0000
     15 C5          4.3170   -4.8870   -1.7620 C.3       1 UNK         0.0000
     16 C6          3.0440   -4.6290   -0.9540 C.3       1 UNK         0.0000
     17 C7          8.5460   -4.9010    1.9820 C.3       1 UNK         0.0000
     18 C8          1.9210   -4.1920   -1.8950 C.3       1 UNK         0.0000
     19 C9         -0.1740   -3.5600   -0.9660 C.ar      1 UNK         0.0000
     20 C10        -1.2210   -3.0270   -1.7300 C.ar      1 UNK         0.0000
     21 C11        -2.8060   -4.2510   -0.4170 C.ar      1 UNK         0.0000
     22 C12        -0.4310   -4.4320    0.0680 C.ar      1 UNK         0.0000
     23 C13        -1.7550   -4.7930    0.3600 C.ar      1 UNK         0.0000
     24 C14        -2.5160   -3.3640   -1.4650 C.ar      1 UNK         0.0000
     25 C15        -4.1390   -4.6170   -0.1200 C.ar      1 UNK         0.0000
     26 C16        -4.3520   -5.5080    0.9420 C.ar      1 UNK         0.0000
     27 C17        -3.2490   -5.9970    1.6610 C.ar      1 UNK         0.0000
     28 C18        -5.9320   -4.9590   -1.6890 C.ar      1 UNK         0.0000
     29 C19        -5.2780   -5.8860   -2.4870 C.ar      1 UNK         0.0000
     30 C20        -0.8700   -2.7220   -4.0630 C.3       1 UNK         0.0000
     31 C21        -7.3190   -4.8740   -1.7180 C.ar      1 UNK         0.0000
     32 C22        -6.0090   -6.7220   -3.3170 C.ar      1 UNK         0.0000
     33 C23        -5.6800   -5.9150    1.2910 C.1       1 UNK         0.0000
     34 C24        -8.0460   -5.7050   -2.5500 C.ar      1 UNK         0.0000
     35 C25        -7.3940   -6.6300   -3.3470 C.ar      1 UNK         0.0000
     36 C26        -4.8390   -7.1580   -5.3410 C.3       1 UNK         0.0000
     37 H1          4.8930   -3.8040    0.6310 H         1 UNK         0.0000
     38 H2          4.1610   -5.4160    0.8180 H         1 UNK         0.0000
     39 H3          6.9030   -4.7660   -2.2760 H         1 UNK         0.0000
     40 H4          6.4970   -3.4240   -1.1780 H         1 UNK         0.0000
     41 H5          6.3660   -6.3660    1.3980 H         1 UNK         0.0000
     42 H6          5.9610   -5.0240    2.4960 H         1 UNK         0.0000
     43 H7          7.9700   -5.9850   -0.4110 H         1 UNK         0.0000
     44 H8          8.7020   -4.3730   -0.5990 H         1 UNK         0.0000
     45 H9          4.1560   -5.7270   -2.4370 H         1 UNK         0.0000
     46 H10         4.5650   -3.9980   -2.3420 H         1 UNK         0.0000
     47 H11         3.2320   -3.8440   -0.2220 H         1 UNK         0.0000
     48 H12         2.7500   -5.5440   -0.4380 H         1 UNK         0.0000
     49 H13         8.4570   -4.2930    2.8810 H         1 UNK         0.0000
     50 H14         8.5080   -5.9560    2.2530 H         1 UNK         0.0000
     51 H15         9.4950   -4.6860    1.4900 H         1 UNK         0.0000
     52 H16         1.3100   -5.0550   -2.1570 H         1 UNK         0.0000
     53 H17         2.3520   -3.7640   -2.8020 H         1 UNK         0.0000
     54 H18         0.3830   -4.8360    0.6510 H         1 UNK         0.0000
     55 H19        -3.3170   -2.9490   -2.0600 H         1 UNK         0.0000
     56 H20        -5.4300   -3.1750   -0.7840 H         1 UNK         0.0000
     57 H21        -3.4140   -6.6820    2.4780 H         1 UNK         0.0000
     58 H22        -4.2000   -5.9570   -2.4630 H         1 UNK         0.0000
     59 H23         0.1330   -3.1090   -4.2400 H         1 UNK         0.0000
     60 H24        -1.5940   -3.5310   -4.1560 H         1 UNK         0.0000
     61 H25        -1.0950   -1.9460   -4.7950 H         1 UNK         0.0000
     62 H26        -9.1230   -5.6360   -2.5750 H         1 UNK         0.0000
     63 H27        -5.0470   -7.8850   -6.1260 H         1 UNK         0.0000
     64 H28        -5.3020   -6.2050   -5.5950 H         1 UNK         0.0000
     65 H29        -3.7610   -7.0250   -5.2450 H         1 UNK         0.0000
@<TRIPOS>BOND
     1    1   31 1
     2    2   35 1
     3    3   18 1
     4    3   19 1
     5    4   20 1
     6    4   30 1
     7    5   32 1
     8    5   36 1
     9    6   11 1
    10    6   12 1
    11    6   15 1
    12    7   13 1
    13    7   14 1
    14    7   17 1
    15    8   25 1
    16    8   28 1
    17    8   56 1
    18    9   23 ar
    19    9   27 ar
    20   10   33 3
    21   11   13 1
    22   11   37 1
    23   11   38 1
    24   12   14 1
    25   12   39 1
    26   12   40 1
    27   13   41 1
    28   13   42 1
    29   14   43 1
    30   14   44 1
    31   15   16 1
    32   15   45 1
    33   15   46 1
    34   16   18 1
    35   16   47 1
    36   16   48 1
    37   17   49 1
    38   17   50 1
    39   17   51 1
    40   18   52 1
    41   18   53 1
    42   19   20 ar
    43   19   22 ar
    44   20   24 ar
    45   21   23 ar
    46   21   24 ar
    47   21   25 ar
    48   22   23 ar
    49   22   54 1
    50   24   55 1
    51   25   26 ar
    52   26   27 ar
    53   26   33 1
    54   27   57 1
    55   28   29 ar
    56   28   31 ar
    57   29   32 ar
    58   29   58 1
    59   30   59 1
    60   30   60 1
    61   30   61 1
    62   31   34 ar
    63   32   35 ar
    64   34   35 ar
    65   34   62 1
    66   36   63 1
    67   36   64 1
    68   36   65 1
