@<TRIPOS>MOLECULE
5328940
   65    68     0     0     0
SMALL
NO_CHARGES

@<TRIPOS>ATOM
      1 Cl1        -6.3340   -3.4780   -5.0660 Cl        1 UNK         0.0000
      2 Cl2        -9.1360    0.7390   -3.1870 Cl        1 UNK         0.0000
      3 O1         -3.0460   -4.6590    1.5800 O.3       1 UNK         0.0000
      4 O2         -3.2590   -3.4170   -0.8620 O.3       1 UNK         0.0000
      5 O3        -10.1050   -1.2050   -1.1870 O.3       1 UNK         0.0000
      6 N1          0.8310   -4.4440    0.3330 N.3       1 UNK         0.0000
      7 N2          3.2950   -5.5140   -0.6100 N.3       1 UNK         0.0000
      8 N3         -7.6370   -4.9630   -2.8430 N.pl3     1 UNK         0.0000
      9 N4         -7.2280   -6.7910    0.8710 N.ar      1 UNK         0.0000
     10 N5        -10.5810   -6.9450   -2.4920 N.1       1 UNK         0.0000
     11 C1          0.8500   -5.6180   -0.5520 C.3       1 UNK         0.0000
     12 C2          2.0370   -4.4020    1.1710 C.3       1 UNK         0.0000
     13 C3          2.0880   -5.5580   -1.4480 C.3       1 UNK         0.0000
     14 C4          3.2760   -4.3420    0.2750 C.3       1 UNK         0.0000
     15 C5         -0.3850   -4.4260    1.1570 C.3       1 UNK         0.0000
     16 C6         -0.9650   -5.8390    1.2420 C.3       1 UNK         0.0000
     17 C7          4.5100   -5.5330   -1.4340 C.3       1 UNK         0.0000
     18 C8         -2.2950   -5.8010    1.9950 C.3       1 UNK         0.0000
     19 C9         -4.1380   -4.8850    0.8040 C.ar      1 UNK         0.0000
     20 C10        -4.2470   -4.2520   -0.4420 C.ar      1 UNK         0.0000
     21 C11        -6.3560   -5.3280   -0.8070 C.ar      1 UNK         0.0000
     22 C12        -5.1250   -5.7350    1.2500 C.ar      1 UNK         0.0000
     23 C13        -6.2540   -5.9710    0.4500 C.ar      1 UNK         0.0000
     24 C14        -5.3350   -4.4660   -1.2380 C.ar      1 UNK         0.0000
     25 C15        -7.4940   -5.5680   -1.6100 C.ar      1 UNK         0.0000
     26 C16        -8.4740   -6.4400   -1.1140 C.ar      1 UNK         0.0000
     27 C17        -8.2900   -7.0350    0.1450 C.ar      1 UNK         0.0000
     28 C18        -7.9930   -3.6130   -2.9230 C.ar      1 UNK         0.0000
     29 C19        -8.8820   -3.0740   -2.0040 C.ar      1 UNK         0.0000
     30 C20        -2.3590   -3.9240   -1.8510 C.3       1 UNK         0.0000
     31 C21        -7.4520   -2.8080   -3.9190 C.ar      1 UNK         0.0000
     32 C22        -9.2340   -1.7360   -2.0850 C.ar      1 UNK         0.0000
     33 C23        -9.6490   -6.7230   -1.8820 C.1       1 UNK         0.0000
     34 C24        -7.8090   -1.4750   -4.0010 C.ar      1 UNK         0.0000
     35 C25        -8.6960   -0.9370   -3.0850 C.ar      1 UNK         0.0000
     36 C26       -10.9290   -2.1220   -0.4620 C.3       1 UNK         0.0000
     37 H1          0.8790   -6.5260    0.0500 H         1 UNK         0.0000
     38 H2         -0.0480   -5.6200   -1.1710 H         1 UNK         0.0000
     39 H3          2.0050   -3.5170    1.8080 H         1 UNK         0.0000
     40 H4          2.0800   -5.2950    1.7920 H         1 UNK         0.0000
     41 H5          2.0450   -4.6630   -2.0690 H         1 UNK         0.0000
     42 H6          2.1200   -6.4420   -2.0850 H         1 UNK         0.0000
     43 H7          3.2470   -3.4330   -0.3270 H         1 UNK         0.0000
     44 H8          4.1720   -4.3380    0.8940 H         1 UNK         0.0000
     45 H9         -1.1190   -3.7590    0.7060 H         1 UNK         0.0000
     46 H10        -0.1400   -4.0740    2.1590 H         1 UNK         0.0000
     47 H11        -0.2660   -6.4870    1.7720 H         1 UNK         0.0000
     48 H12        -1.1280   -6.2270    0.2360 H         1 UNK         0.0000
     49 H13         4.9950   -6.5050   -1.3450 H         1 UNK         0.0000
     50 H14         4.2450   -5.3540   -2.4760 H         1 UNK         0.0000
     51 H15         5.1920   -4.7540   -1.0930 H         1 UNK         0.0000
     52 H16        -2.1050   -5.7410    3.0670 H         1 UNK         0.0000
     53 H17        -2.8620   -6.7070    1.7780 H         1 UNK         0.0000
     54 H18        -5.0310   -6.2170    2.2110 H         1 UNK         0.0000
     55 H19        -5.4110   -3.9740   -2.1960 H         1 UNK         0.0000
     56 H20        -7.4890   -5.4740   -3.6540 H         1 UNK         0.0000
     57 H21        -9.0440   -7.7060    0.5260 H         1 UNK         0.0000
     58 H22        -9.3000   -3.6960   -1.2260 H         1 UNK         0.0000
     59 H23        -2.8890   -4.0470   -2.7950 H         1 UNK         0.0000
     60 H24        -1.5360   -3.2220   -1.9850 H         1 UNK         0.0000
     61 H25        -1.9670   -4.8870   -1.5250 H         1 UNK         0.0000
     62 H26        -7.3910   -0.8510   -4.7780 H         1 UNK         0.0000
     63 H27       -10.5880   -3.1400   -0.6480 H         1 UNK         0.0000
     64 H28       -10.8640   -1.9050    0.6030 H         1 UNK         0.0000
     65 H29       -11.9630   -2.0190   -0.7930 H         1 UNK         0.0000
@<TRIPOS>BOND
     1    1   31 1
     2    2   35 1
     3    3   18 1
     4    3   19 1
     5    4   20 1
     6    4   30 1
     7    5   32 1
     8    5   36 1
     9    6   11 1
    10    6   12 1
    11    6   15 1
    12    7   13 1
    13    7   14 1
    14    7   17 1
    15    8   25 1
    16    8   28 1
    17    8   56 1
    18    9   23 ar
    19    9   27 ar
    20   10   33 3
    21   11   13 1
    22   11   37 1
    23   11   38 1
    24   12   14 1
    25   12   39 1
    26   12   40 1
    27   13   41 1
    28   13   42 1
    29   14   43 1
    30   14   44 1
    31   15   16 1
    32   15   45 1
    33   15   46 1
    34   16   18 1
    35   16   47 1
    36   16   48 1
    37   17   49 1
    38   17   50 1
    39   17   51 1
    40   18   52 1
    41   18   53 1
    42   19   20 ar
    43   19   22 ar
    44   20   24 ar
    45   21   23 ar
    46   21   24 ar
    47   21   25 ar
    48   22   23 ar
    49   22   54 1
    50   24   55 1
    51   25   26 ar
    52   26   27 ar
    53   26   33 1
    54   27   57 1
    55   28   29 ar
    56   28   31 ar
    57   29   32 ar
    58   29   58 1
    59   30   59 1
    60   30   60 1
    61   30   61 1
    62   31   34 ar
    63   32   35 ar
    64   34   35 ar
    65   34   62 1
    66   36   63 1
    67   36   64 1
    68   36   65 1
