@<TRIPOS>MOLECULE
5328940
   65    68     0     0     0
SMALL
NO_CHARGES

@<TRIPOS>ATOM
      1 Cl1       -11.9970  -12.6080   18.3650 Cl        1 UNK         0.0000
      2 Cl2       -11.3580  -17.0120   15.3040 Cl        1 UNK         0.0000
      3 O1        -11.6520   -8.0130   10.2630 O.3       1 UNK         0.0000
      4 O2        -13.5670   -9.5470   11.5000 O.3       1 UNK         0.0000
      5 O3        -10.9390  -15.0510   13.1360 O.3       1 UNK         0.0000
      6 N1        -10.9130   -4.5600    9.4570 N.3       1 UNK         0.0000
      7 N2         -9.7540   -2.8670   11.4320 N.3       1 UNK         0.0000
      8 N3        -11.5130  -11.1310   15.8300 N.pl3     1 UNK         0.0000
      9 N4         -8.6810   -8.7870   13.8840 N.ar      1 UNK         0.0000
     10 N5         -8.6870  -11.1490   18.0070 N.1       1 UNK         0.0000
     11 C1         -9.5120   -4.7350    9.8680 C.3       1 UNK         0.0000
     12 C2        -11.7220   -4.0390   10.5670 C.3       1 UNK         0.0000
     13 C3         -8.9440   -3.3890   10.3220 C.3       1 UNK         0.0000
     14 C4        -11.1540   -2.6930   11.0210 C.3       1 UNK         0.0000
     15 C5        -11.4710   -5.8170    8.9420 C.3       1 UNK         0.0000
     16 C6        -10.3340   -6.7970    8.6440 C.3       1 UNK         0.0000
     17 C7         -9.1960   -1.6110   11.9470 C.3       1 UNK         0.0000
     18 C8        -10.6700   -8.1660    9.2370 C.3       1 UNK         0.0000
     19 C9        -11.3830   -8.5830   11.4670 C.ar      1 UNK         0.0000
     20 C10       -12.3590   -9.3660   12.0980 C.ar      1 UNK         0.0000
     21 C11       -10.8630   -9.7630   13.9260 C.ar      1 UNK         0.0000
     22 C12       -10.1530   -8.3860   12.0530 C.ar      1 UNK         0.0000
     23 C13        -9.8720   -8.9740   13.2960 C.ar      1 UNK         0.0000
     24 C14       -12.1090   -9.9480   13.3070 C.ar      1 UNK         0.0000
     25 C15       -10.5770  -10.3530   15.1780 C.ar      1 UNK         0.0000
     26 C16        -9.3110  -10.1240   15.7360 C.ar      1 UNK         0.0000
     27 C17        -8.3870   -9.3270   15.0400 C.ar      1 UNK         0.0000
     28 C18       -11.4760  -12.5230   15.7030 C.ar      1 UNK         0.0000
     29 C19       -11.2220  -13.1020   14.4680 C.ar      1 UNK         0.0000
     30 C20       -13.9780  -10.8960   11.2650 C.3       1 UNK         0.0000
     31 C21       -11.6870  -13.3300   16.8160 C.ar      1 UNK         0.0000
     32 C22       -11.1860  -14.4820   14.3450 C.ar      1 UNK         0.0000
     33 C23        -8.9620  -10.6960   17.0020 C.1       1 UNK         0.0000
     34 C24       -11.6560  -14.7060   16.6900 C.ar      1 UNK         0.0000
     35 C25       -11.4040  -15.2830   15.4580 C.ar      1 UNK         0.0000
     36 C26       -11.9650  -14.9440   12.1460 C.3       1 UNK         0.0000
     37 H1         -9.4610   -5.4490   10.6910 H         1 UNK         0.0000
     38 H2         -8.9310   -5.1100    9.0250 H         1 UNK         0.0000
     39 H3        -12.7520   -3.9060   10.2340 H         1 UNK         0.0000
     40 H4        -11.6960   -4.7440   11.3970 H         1 UNK         0.0000
     41 H5         -8.9700   -2.6850    9.4900 H         1 UNK         0.0000
     42 H6         -7.9150   -3.5220   10.6540 H         1 UNK         0.0000
     43 H7        -11.2050   -1.9800   10.1980 H         1 UNK         0.0000
     44 H8        -11.7370   -2.3190   11.8630 H         1 UNK         0.0000
     45 H9        -12.0280   -5.6190    8.0270 H         1 UNK         0.0000
     46 H10       -12.1370   -6.2520    9.6870 H         1 UNK         0.0000
     47 H11        -9.4100   -6.4260    9.0870 H         1 UNK         0.0000
     48 H12       -10.2080   -6.8900    7.5650 H         1 UNK         0.0000
     49 H13        -8.9200   -1.7380   12.9930 H         1 UNK         0.0000
     50 H14        -8.3120   -1.3420   11.3690 H         1 UNK         0.0000
     51 H15        -9.9410   -0.8200   11.8600 H         1 UNK         0.0000
     52 H16        -9.7690   -8.6100    9.6600 H         1 UNK         0.0000
     53 H17       -11.0620   -8.8150    8.4540 H         1 UNK         0.0000
     54 H18        -9.4080   -7.7810   11.5580 H         1 UNK         0.0000
     55 H19       -12.8670  -10.5490   13.7870 H         1 UNK         0.0000
     56 H20       -12.1960  -10.7120   16.3770 H         1 UNK         0.0000
     57 H21        -7.4130   -9.1510   15.4700 H         1 UNK         0.0000
     58 H22       -11.0540  -12.4780   13.6030 H         1 UNK         0.0000
     59 H23       -14.2500  -11.3640   12.2100 H         1 UNK         0.0000
     60 H24       -14.8390  -10.9010   10.5960 H         1 UNK         0.0000
     61 H25       -13.1580  -11.4500   10.8070 H         1 UNK         0.0000
     62 H26       -11.8240  -15.3310   17.5540 H         1 UNK         0.0000
     63 H27       -12.2420  -15.9400   11.8010 H         1 UNK         0.0000
     64 H28       -12.8370  -14.4530   12.5780 H         1 UNK         0.0000
     65 H29       -11.5970  -14.3570   11.3040 H         1 UNK         0.0000
@<TRIPOS>BOND
     1    1   31 1
     2    2   35 1
     3    3   18 1
     4    3   19 1
     5    4   20 1
     6    4   30 1
     7    5   32 1
     8    5   36 1
     9    6   11 1
    10    6   12 1
    11    6   15 1
    12    7   13 1
    13    7   14 1
    14    7   17 1
    15    8   25 1
    16    8   28 1
    17    8   56 1
    18    9   23 ar
    19    9   27 ar
    20   10   33 3
    21   11   13 1
    22   11   37 1
    23   11   38 1
    24   12   14 1
    25   12   39 1
    26   12   40 1
    27   13   41 1
    28   13   42 1
    29   14   43 1
    30   14   44 1
    31   15   16 1
    32   15   45 1
    33   15   46 1
    34   16   18 1
    35   16   47 1
    36   16   48 1
    37   17   49 1
    38   17   50 1
    39   17   51 1
    40   18   52 1
    41   18   53 1
    42   19   20 ar
    43   19   22 ar
    44   20   24 ar
    45   21   23 ar
    46   21   24 ar
    47   21   25 ar
    48   22   23 ar
    49   22   54 1
    50   24   55 1
    51   25   26 ar
    52   26   27 ar
    53   26   33 1
    54   27   57 1
    55   28   29 ar
    56   28   31 ar
    57   29   32 ar
    58   29   58 1
    59   30   59 1
    60   30   60 1
    61   30   61 1
    62   31   34 ar
    63   32   35 ar
    64   34   35 ar
    65   34   62 1
    66   36   63 1
    67   36   64 1
    68   36   65 1
