@<TRIPOS>MOLECULE
25174101
   55    58     0     0     0
SMALL
NO_CHARGES

@<TRIPOS>ATOM
      1 O1          7.2320   -5.8340  -10.2500 O.2       1 UNK         0.0000
      2 N1         10.1840   -3.6370  -11.4750 N.pl3     1 UNK         0.0000
      3 N2         10.7040   -4.1910  -12.6510 N.2       1 UNK         0.0000
      4 N3          8.0280   -3.7610  -10.3000 N.am      1 UNK         0.0000
      5 N4          6.3630   -4.4000   -8.7940 N.am      1 UNK         0.0000
      6 N5         10.5950    0.6420   -9.2780 N.pl3     1 UNK         0.0000
      7 C1          9.9210   -5.7110  -14.4850 C.3       1 UNK         0.0000
      8 C2          9.7770   -4.9330  -13.2030 C.2       1 UNK         0.0000
      9 C3          9.2110   -4.9650  -15.6170 C.3       1 UNK         0.0000
     10 C4         11.4040   -5.8650  -14.8260 C.3       1 UNK         0.0000
     11 C5          9.2920   -7.0960  -14.3140 C.3       1 UNK         0.0000
     12 C6          8.6360   -4.8870  -12.3980 C.2       1 UNK         0.0000
     13 C7          8.9040   -4.0770  -11.3380 C.2       1 UNK         0.0000
     14 C8         10.8620   -2.7830  -10.5940 C.ar      1 UNK         0.0000
     15 C9         10.3940   -1.4950  -10.3780 C.ar      1 UNK         0.0000
     16 C10        12.0070   -3.2230   -9.9420 C.ar      1 UNK         0.0000
     17 C11         7.2080   -4.7060   -9.7970 C.2       1 UNK         0.0000
     18 C12         5.5980   -5.4030   -8.1940 C.ar      1 UNK         0.0000
     19 C13         5.3900   -5.4030   -6.7990 C.ar      1 UNK         0.0000
     20 C14        11.0660   -0.6540   -9.5030 C.ar      1 UNK         0.0000
     21 C15         4.6110   -6.4310   -6.2130 C.ar      1 UNK         0.0000
     22 C16        12.6770   -2.3820   -9.0740 C.ar      1 UNK         0.0000
     23 C17        12.2110   -1.1010   -8.8520 C.ar      1 UNK         0.0000
     24 C18         5.0410   -6.4030   -8.9620 C.ar      1 UNK         0.0000
     25 C19         5.9390   -4.4040   -5.9810 C.ar      1 UNK         0.0000
     26 C20         4.0600   -7.4330   -7.0310 C.ar      1 UNK         0.0000
     27 C21         4.2780   -7.4080   -8.3740 C.ar      1 UNK         0.0000
     28 C22         4.4040   -6.4300   -4.8230 C.ar      1 UNK         0.0000
     29 C23         5.7180   -4.4330   -4.6380 C.ar      1 UNK         0.0000
     30 C24         4.9530   -5.4440   -4.0610 C.ar      1 UNK         0.0000
     31 H1          8.3540   -5.5480  -15.9540 H         1 UNK         0.0000
     32 H2          8.8700   -3.9950  -15.2550 H         1 UNK         0.0000
     33 H3          9.9020   -4.8210  -16.4470 H         1 UNK         0.0000
     34 H4         11.5060   -6.3460  -15.7990 H         1 UNK         0.0000
     35 H5         11.8740   -4.8820  -14.8550 H         1 UNK         0.0000
     36 H6         11.8900   -6.4770  -14.0660 H         1 UNK         0.0000
     37 H7          8.7270   -7.3520  -15.2100 H         1 UNK         0.0000
     38 H8         10.0780   -7.8360  -14.1580 H         1 UNK         0.0000
     39 H9          8.6240   -7.0880  -13.4540 H         1 UNK         0.0000
     40 H10         7.7050   -5.4020  -12.5860 H         1 UNK         0.0000
     41 H11         8.0090   -2.8600   -9.9380 H         1 UNK         0.0000
     42 H12         9.5070   -1.1500  -10.8880 H         1 UNK         0.0000
     43 H13        12.3740   -4.2240  -10.1140 H         1 UNK         0.0000
     44 H14         6.2850   -3.4830   -8.4880 H         1 UNK         0.0000
     45 H15        13.5660   -2.7260   -8.5680 H         1 UNK         0.0000
     46 H16        12.7360   -0.4450   -8.1740 H         1 UNK         0.0000
     47 H17         5.1980   -6.4070  -10.0300 H         1 UNK         0.0000
     48 H18         6.5350   -3.6130   -6.4160 H         1 UNK         0.0000
     49 H19         3.4690   -8.2230   -6.5930 H         1 UNK         0.0000
     50 H20         3.8510   -8.1820   -8.9950 H         1 UNK         0.0000
     51 H21         3.8120   -7.2070   -4.3620 H         1 UNK         0.0000
     52 H22         6.1420   -3.6630   -4.0120 H         1 UNK         0.0000
     53 H23         4.7920   -5.4460   -2.9930 H         1 UNK         0.0000
     54 H24        11.1890    1.4000   -9.3930 H         1 UNK         0.0000
     55 H25         9.6740    0.7840   -9.0100 H         1 UNK         0.0000
@<TRIPOS>BOND
     1    1   17 2
     2    2    3 1
     3    2   13 1
     4    2   14 1
     5    3    8 2
     6    4   13 1
     7    4   17 am
     8    4   41 1
     9    5   17 am
    10    5   18 1
    11    5   44 1
    12    6   20 1
    13    6   54 1
    14    6   55 1
    15    7    8 1
    16    7    9 1
    17    7   10 1
    18    7   11 1
    19    8   12 1
    20    9   31 1
    21    9   32 1
    22    9   33 1
    23   10   34 1
    24   10   35 1
    25   10   36 1
    26   11   37 1
    27   11   38 1
    28   11   39 1
    29   12   13 2
    30   12   40 1
    31   14   15 ar
    32   14   16 ar
    33   15   20 ar
    34   15   42 1
    35   16   22 ar
    36   16   43 1
    37   18   19 ar
    38   18   24 ar
    39   19   21 ar
    40   19   25 ar
    41   20   23 ar
    42   21   26 ar
    43   21   28 ar
    44   22   23 ar
    45   22   45 1
    46   23   46 1
    47   24   27 ar
    48   24   47 1
    49   25   29 ar
    50   25   48 1
    51   26   27 ar
    52   26   49 1
    53   27   50 1
    54   28   30 ar
    55   28   51 1
    56   29   30 ar
    57   29   52 1
    58   30   53 1
