@<TRIPOS>MOLECULE
25174101
   55    58     0     0     0
SMALL
NO_CHARGES

@<TRIPOS>ATOM
      1 O1          9.1350   -5.1730   -9.9850 O.2       1 UNK         0.0000
      2 N1          5.9740   -5.8470  -10.1710 N.pl3     1 UNK         0.0000
      3 N2          5.4070   -7.0540  -10.5960 N.2       1 UNK         0.0000
      4 N3          7.5160   -4.2070  -11.1590 N.am      1 UNK         0.0000
      5 N4          9.4340   -3.0390  -10.5200 N.am      1 UNK         0.0000
      6 N5          6.8590   -5.5410   -5.4350 N.pl3     1 UNK         0.0000
      7 C1          5.4720   -8.5150  -12.6330 C.3       1 UNK         0.0000
      8 C2          5.8390   -7.3110  -11.8050 C.2       1 UNK         0.0000
      9 C3          4.4460   -9.3600  -11.8770 C.3       1 UNK         0.0000
     10 C4          4.8750   -8.0560  -13.9640 C.3       1 UNK         0.0000
     11 C5          6.7260   -9.3520  -12.8990 C.3       1 UNK         0.0000
     12 C6          6.6910   -6.2750  -12.1990 C.2       1 UNK         0.0000
     13 C7          6.7680   -5.3830  -11.1750 C.2       1 UNK         0.0000
     14 C8          5.7620   -5.2260   -8.9320 C.ar      1 UNK         0.0000
     15 C9          6.4120   -5.6950   -7.8000 C.ar      1 UNK         0.0000
     16 C10         4.8970   -4.1430   -8.8370 C.ar      1 UNK         0.0000
     17 C11         8.7100   -4.1750  -10.5350 C.2       1 UNK         0.0000
     18 C12        10.7200   -3.0360   -9.9770 C.ar      1 UNK         0.0000
     19 C13        11.2990   -1.8320   -9.5220 C.ar      1 UNK         0.0000
     20 C14         6.2030   -5.0740   -6.5770 C.ar      1 UNK         0.0000
     21 C15        12.6060   -1.8540   -8.9750 C.ar      1 UNK         0.0000
     22 C16         4.6860   -3.5300   -7.6160 C.ar      1 UNK         0.0000
     23 C17         5.3350   -3.9910   -6.4870 C.ar      1 UNK         0.0000
     24 C18        11.4350   -4.2100   -9.8800 C.ar      1 UNK         0.0000
     25 C19        10.6060   -0.6150   -9.6020 C.ar      1 UNK         0.0000
     26 C20        13.3020   -3.0720   -8.8950 C.ar      1 UNK         0.0000
     27 C21        12.7190   -4.2180   -9.3410 C.ar      1 UNK         0.0000
     28 C22        13.1820   -0.6550   -8.5230 C.ar      1 UNK         0.0000
     29 C23        11.1940    0.5280   -9.1540 C.ar      1 UNK         0.0000
     30 C24        12.4790    0.5080   -8.6160 C.ar      1 UNK         0.0000
     31 H1          3.7970   -9.8680  -12.5900 H         1 UNK         0.0000
     32 H2          4.9640  -10.1010  -11.2660 H         1 UNK         0.0000
     33 H3          3.8460   -8.7160  -11.2340 H         1 UNK         0.0000
     34 H4          5.6760   -7.8950  -14.6860 H         1 UNK         0.0000
     35 H5          4.1950   -8.8210  -14.3400 H         1 UNK         0.0000
     36 H6          4.3270   -7.1260  -13.8150 H         1 UNK         0.0000
     37 H7          7.5650   -8.9380  -12.3390 H         1 UNK         0.0000
     38 H8          6.5500  -10.3800  -12.5820 H         1 UNK         0.0000
     39 H9          6.9570   -9.3340  -13.9630 H         1 UNK         0.0000
     40 H10         7.2020   -6.1990  -13.1490 H         1 UNK         0.0000
     41 H11         7.1780   -3.4100  -11.5980 H         1 UNK         0.0000
     42 H12         7.0810   -6.5390   -7.8720 H         1 UNK         0.0000
     43 H13         4.3870   -3.7810   -9.7170 H         1 UNK         0.0000
     44 H14         9.0610   -2.2220  -10.8870 H         1 UNK         0.0000
     45 H15         4.0130   -2.6890   -7.5440 H         1 UNK         0.0000
     46 H16         5.1700   -3.5100   -5.5350 H         1 UNK         0.0000
     47 H17        10.9960   -5.1340  -10.2270 H         1 UNK         0.0000
     48 H18         9.6080   -0.5850  -10.0170 H         1 UNK         0.0000
     49 H19        14.3000   -3.0970   -8.4830 H         1 UNK         0.0000
     50 H20        13.2620   -5.1500   -9.2770 H         1 UNK         0.0000
     51 H21        14.1770   -0.6550   -8.1030 H         1 UNK         0.0000
     52 H22        10.6580    1.4620   -9.2160 H         1 UNK         0.0000
     53 H23        12.9250    1.4280   -8.2680 H         1 UNK         0.0000
     54 H24         6.3660   -5.6590   -4.6070 H         1 UNK         0.0000
     55 H25         7.8060   -5.7480   -5.4700 H         1 UNK         0.0000
@<TRIPOS>BOND
     1    1   17 2
     2    2    3 1
     3    2   13 1
     4    2   14 1
     5    3    8 2
     6    4   13 1
     7    4   17 am
     8    4   41 1
     9    5   17 am
    10    5   18 1
    11    5   44 1
    12    6   20 1
    13    6   54 1
    14    6   55 1
    15    7    8 1
    16    7    9 1
    17    7   10 1
    18    7   11 1
    19    8   12 1
    20    9   31 1
    21    9   32 1
    22    9   33 1
    23   10   34 1
    24   10   35 1
    25   10   36 1
    26   11   37 1
    27   11   38 1
    28   11   39 1
    29   12   13 2
    30   12   40 1
    31   14   15 ar
    32   14   16 ar
    33   15   20 ar
    34   15   42 1
    35   16   22 ar
    36   16   43 1
    37   18   19 ar
    38   18   24 ar
    39   19   21 ar
    40   19   25 ar
    41   20   23 ar
    42   21   26 ar
    43   21   28 ar
    44   22   23 ar
    45   22   45 1
    46   23   46 1
    47   24   27 ar
    48   24   47 1
    49   25   29 ar
    50   25   48 1
    51   26   27 ar
    52   26   49 1
    53   27   50 1
    54   28   30 ar
    55   28   51 1
    56   29   30 ar
    57   29   52 1
    58   30   53 1
