@<TRIPOS>MOLECULE
25174101
   55    58     0     0     0
SMALL
NO_CHARGES

@<TRIPOS>ATOM
      1 O1          7.6450   -5.5180   -8.9450 O.2       1 UNK         0.0000
      2 N1          9.0320   -5.1480  -12.1080 N.pl3     1 UNK         0.0000
      3 N2         10.4180   -4.9880  -12.2280 N.2       1 UNK         0.0000
      4 N3          7.2880   -4.1730  -10.6750 N.am      1 UNK         0.0000
      5 N4          5.6020   -4.6690   -9.1390 N.am      1 UNK         0.0000
      6 N5          7.5380   -9.6030  -13.2150 N.pl3     1 UNK         0.0000
      7 C1         12.2280   -3.6360  -11.1410 C.3       1 UNK         0.0000
      8 C2         10.8110   -4.1030  -11.3470 C.2       1 UNK         0.0000
      9 C3         12.9370   -3.5470  -12.4940 C.3       1 UNK         0.0000
     10 C4         12.2210   -2.2590  -10.4760 C.3       1 UNK         0.0000
     11 C5         12.9670   -4.6310  -10.2430 C.3       1 UNK         0.0000
     12 C6          9.6920   -3.6600  -10.6360 C.2       1 UNK         0.0000
     13 C7          8.6030   -4.3210  -11.1160 C.2       1 UNK         0.0000
     14 C8          8.2300   -6.0060  -12.8720 C.ar      1 UNK         0.0000
     15 C9          8.2860   -7.3770  -12.6670 C.ar      1 UNK         0.0000
     16 C10         7.3810   -5.4850  -13.8410 C.ar      1 UNK         0.0000
     17 C11         6.8730   -4.8120   -9.5640 C.2       1 UNK         0.0000
     18 C12         5.2030   -5.2350   -7.9260 C.ar      1 UNK         0.0000
     19 C13         4.4620   -6.4350   -7.9100 C.ar      1 UNK         0.0000
     20 C14         7.4870   -8.2220  -13.4220 C.ar      1 UNK         0.0000
     21 C15         4.0670   -6.9910   -6.6680 C.ar      1 UNK         0.0000
     22 C16         6.5900   -6.3300  -14.5960 C.ar      1 UNK         0.0000
     23 C17         6.6400   -7.6950  -14.3900 C.ar      1 UNK         0.0000
     24 C18         5.5300   -4.6250   -6.7340 C.ar      1 UNK         0.0000
     25 C19         4.1080   -7.0890   -9.1000 C.ar      1 UNK         0.0000
     26 C20         4.4200   -6.3370   -5.4750 C.ar      1 UNK         0.0000
     27 C21         5.1360   -5.1800   -5.5200 C.ar      1 UNK         0.0000
     28 C22         3.3290   -8.1860   -6.6520 C.ar      1 UNK         0.0000
     29 C23         3.3920   -8.2460   -9.0480 C.ar      1 UNK         0.0000
     30 C24         3.0030   -8.7920   -7.8270 C.ar      1 UNK         0.0000
     31 H1         13.8990   -3.0510  -12.3670 H         1 UNK         0.0000
     32 H2         13.0950   -4.5510  -12.8890 H         1 UNK         0.0000
     33 H3         12.3230   -2.9760  -13.1900 H         1 UNK         0.0000
     34 H4         13.2460   -1.9510  -10.2660 H         1 UNK         0.0000
     35 H5         11.7530   -1.5350  -11.1440 H         1 UNK         0.0000
     36 H6         11.6580   -2.3080   -9.5440 H         1 UNK         0.0000
     37 H7         14.0290   -4.6230  -10.4890 H         1 UNK         0.0000
     38 H8         12.8350   -4.3470   -9.1990 H         1 UNK         0.0000
     39 H9         12.5660   -5.6310  -10.4010 H         1 UNK         0.0000
     40 H10         9.6920   -2.9250   -9.8450 H         1 UNK         0.0000
     41 H11         6.6720   -3.6090  -11.1690 H         1 UNK         0.0000
     42 H12         8.9490   -7.7840  -11.9170 H         1 UNK         0.0000
     43 H13         7.3400   -4.4180  -14.0040 H         1 UNK         0.0000
     44 H14         4.9650   -4.1720   -9.6750 H         1 UNK         0.0000
     45 H15         5.9310   -5.9230  -15.3480 H         1 UNK         0.0000
     46 H16         6.0200   -8.3530  -14.9810 H         1 UNK         0.0000
     47 H17         6.0970   -3.7060   -6.7420 H         1 UNK         0.0000
     48 H18         4.4030   -6.6760  -10.0540 H         1 UNK         0.0000
     49 H19         4.1200   -6.7510   -4.5230 H         1 UNK         0.0000
     50 H20         5.4030   -4.6840   -4.5980 H         1 UNK         0.0000
     51 H21         3.0210   -8.6220   -5.7130 H         1 UNK         0.0000
     52 H22         3.1220   -8.7460   -9.9660 H         1 UNK         0.0000
     53 H23         2.4350   -9.7110   -7.8120 H         1 UNK         0.0000
     54 H24         7.5290  -10.2070  -13.9730 H         1 UNK         0.0000
     55 H25         7.5830   -9.9560  -12.3120 H         1 UNK         0.0000
@<TRIPOS>BOND
     1    1   17 2
     2    2    3 1
     3    2   13 1
     4    2   14 1
     5    3    8 2
     6    4   13 1
     7    4   17 am
     8    4   41 1
     9    5   17 am
    10    5   18 1
    11    5   44 1
    12    6   20 1
    13    6   54 1
    14    6   55 1
    15    7    8 1
    16    7    9 1
    17    7   10 1
    18    7   11 1
    19    8   12 1
    20    9   31 1
    21    9   32 1
    22    9   33 1
    23   10   34 1
    24   10   35 1
    25   10   36 1
    26   11   37 1
    27   11   38 1
    28   11   39 1
    29   12   13 2
    30   12   40 1
    31   14   15 ar
    32   14   16 ar
    33   15   20 ar
    34   15   42 1
    35   16   22 ar
    36   16   43 1
    37   18   19 ar
    38   18   24 ar
    39   19   21 ar
    40   19   25 ar
    41   20   23 ar
    42   21   26 ar
    43   21   28 ar
    44   22   23 ar
    45   22   45 1
    46   23   46 1
    47   24   27 ar
    48   24   47 1
    49   25   29 ar
    50   25   48 1
    51   26   27 ar
    52   26   49 1
    53   27   50 1
    54   28   30 ar
    55   28   51 1
    56   29   30 ar
    57   29   52 1
    58   30   53 1
