@<TRIPOS>MOLECULE
25174101
   55    58     0     0     0
SMALL
NO_CHARGES

@<TRIPOS>ATOM
      1 O1          7.3730   -6.0410   -9.3310 O.2       1 UNK         0.0000
      2 N1          9.0800   -5.0990  -11.9090 N.pl3     1 UNK         0.0000
      3 N2         10.4720   -4.9620  -11.9810 N.2       1 UNK         0.0000
      4 N3          7.3110   -4.1480  -10.4910 N.am      1 UNK         0.0000
      5 N4          5.4560   -4.9210   -9.3030 N.am      1 UNK         0.0000
      6 N5          7.6200   -9.4810  -13.3140 N.pl3     1 UNK         0.0000
      7 C1         12.2720   -3.6910  -10.7850 C.3       1 UNK         0.0000
      8 C2         10.8530   -4.1210  -11.0530 C.2       1 UNK         0.0000
      9 C3         13.0040   -3.4930  -12.1150 C.3       1 UNK         0.0000
     10 C4         12.2680   -2.3760  -10.0040 C.3       1 UNK         0.0000
     11 C5         12.9860   -4.7690   -9.9660 C.3       1 UNK         0.0000
     12 C6          9.7210   -3.6850  -10.3590 C.2       1 UNK         0.0000
     13 C7          8.6360   -4.3050  -10.8980 C.2       1 UNK         0.0000
     14 C8          8.2860   -5.9100  -12.7320 C.ar      1 UNK         0.0000
     15 C9          8.3510   -7.2910  -12.6170 C.ar      1 UNK         0.0000
     16 C10         7.4380   -5.3310  -13.6680 C.ar      1 UNK         0.0000
     17 C11         6.7360   -5.0720   -9.6960 C.2       1 UNK         0.0000
     18 C12         4.8960   -5.8130   -8.3860 C.ar      1 UNK         0.0000
     19 C13         4.9030   -5.5150   -7.0070 C.ar      1 UNK         0.0000
     20 C14         7.5610   -8.0900  -13.4300 C.ar      1 UNK         0.0000
     21 C15         4.3300   -6.4350   -6.0950 C.ar      1 UNK         0.0000
     22 C16         6.6550   -6.1300  -14.4790 C.ar      1 UNK         0.0000
     23 C17         6.7130   -7.5050  -14.3640 C.ar      1 UNK         0.0000
     24 C18         4.3320   -6.9930   -8.8210 C.ar      1 UNK         0.0000
     25 C19         5.4670   -4.3250   -6.5220 C.ar      1 UNK         0.0000
     26 C20         3.7650   -7.6280   -6.5790 C.ar      1 UNK         0.0000
     27 C21         3.7730   -7.8890   -7.9150 C.ar      1 UNK         0.0000
     28 C22         4.3370   -6.1380   -4.7220 C.ar      1 UNK         0.0000
     29 C23         5.4560   -4.0680   -5.1850 C.ar      1 UNK         0.0000
     30 C24         4.8930   -4.9740   -4.2870 C.ar      1 UNK         0.0000
     31 H1         12.6250   -2.5970  -12.6070 H         1 UNK         0.0000
     32 H2         14.0720   -3.3800  -11.9280 H         1 UNK         0.0000
     33 H3         12.8360   -4.3580  -12.7550 H         1 UNK         0.0000
     34 H4         11.6150   -1.6590  -10.5020 H         1 UNK         0.0000
     35 H5         11.9070   -2.5560   -8.9920 H         1 UNK         0.0000
     36 H6         13.2810   -1.9760   -9.9610 H         1 UNK         0.0000
     37 H7         13.9360   -4.3780   -9.6000 H         1 UNK         0.0000
     38 H8         12.3610   -5.0550   -9.1190 H         1 UNK         0.0000
     39 H9         13.1700   -5.6400  -10.5940 H         1 UNK         0.0000
     40 H10         9.7110   -2.9830   -9.5380 H         1 UNK         0.0000
     41 H11         6.8030   -3.3740  -10.7820 H         1 UNK         0.0000
     42 H12         9.0140   -7.7420  -11.8930 H         1 UNK         0.0000
     43 H13         7.3910   -4.2570  -13.7600 H         1 UNK         0.0000
     44 H14         4.9230   -4.1920   -9.6580 H         1 UNK         0.0000
     45 H15         5.9960   -5.6780  -15.2060 H         1 UNK         0.0000
     46 H16         6.1000   -8.1260  -15.0000 H         1 UNK         0.0000
     47 H17         4.3260   -7.2250   -9.8760 H         1 UNK         0.0000
     48 H18         5.9070   -3.6140   -7.2070 H         1 UNK         0.0000
     49 H19         3.3300   -8.3370   -5.8910 H         1 UNK         0.0000
     50 H20         3.3370   -8.8090   -8.2790 H         1 UNK         0.0000
     51 H21         3.9030   -6.8290   -4.0140 H         1 UNK         0.0000
     52 H22         5.8890   -3.1520   -4.8150 H         1 UNK         0.0000
     53 H23         4.8970   -4.7470   -3.2310 H         1 UNK         0.0000
     54 H24         8.2870   -9.8910  -12.7410 H         1 UNK         0.0000
     55 H25         6.9940  -10.0350  -13.8050 H         1 UNK         0.0000
@<TRIPOS>BOND
     1    1   17 2
     2    2    3 1
     3    2   13 1
     4    2   14 1
     5    3    8 2
     6    4   13 1
     7    4   17 am
     8    4   41 1
     9    5   17 am
    10    5   18 1
    11    5   44 1
    12    6   20 1
    13    6   54 1
    14    6   55 1
    15    7    8 1
    16    7    9 1
    17    7   10 1
    18    7   11 1
    19    8   12 1
    20    9   31 1
    21    9   32 1
    22    9   33 1
    23   10   34 1
    24   10   35 1
    25   10   36 1
    26   11   37 1
    27   11   38 1
    28   11   39 1
    29   12   13 2
    30   12   40 1
    31   14   15 ar
    32   14   16 ar
    33   15   20 ar
    34   15   42 1
    35   16   22 ar
    36   16   43 1
    37   18   19 ar
    38   18   24 ar
    39   19   21 ar
    40   19   25 ar
    41   20   23 ar
    42   21   26 ar
    43   21   28 ar
    44   22   23 ar
    45   22   45 1
    46   23   46 1
    47   24   27 ar
    48   24   47 1
    49   25   29 ar
    50   25   48 1
    51   26   27 ar
    52   26   49 1
    53   27   50 1
    54   28   30 ar
    55   28   51 1
    56   29   30 ar
    57   29   52 1
    58   30   53 1
