@<TRIPOS>MOLECULE
25174101
   55    58     0     0     0
SMALL
NO_CHARGES

@<TRIPOS>ATOM
      1 O1          7.1350   -5.5870   -8.1930 O.2       1 UNK         0.0000
      2 N1          7.9820   -5.5560  -11.3500 N.pl3     1 UNK         0.0000
      3 N2          9.2960   -5.5280  -11.8340 N.2       1 UNK         0.0000
      4 N3          6.6620   -4.1540   -9.8220 N.am      1 UNK         0.0000
      5 N4          5.2560   -4.4230   -7.9780 N.am      1 UNK         0.0000
      6 N5          4.0740   -6.8660  -13.8640 N.pl3     1 UNK         0.0000
      7 C1         11.3350   -4.0930  -11.5730 C.3       1 UNK         0.0000
      8 C2          9.9060   -4.4930  -11.3140 C.2       1 UNK         0.0000
      9 C3         12.2500   -4.7910  -10.5650 C.3       1 UNK         0.0000
     10 C4         11.7310   -4.5030  -12.9920 C.3       1 UNK         0.0000
     11 C5         11.4750   -2.5760  -11.4230 C.3       1 UNK         0.0000
     12 C6          9.0050   -3.8190  -10.4850 C.2       1 UNK         0.0000
     13 C7          7.8240   -4.4930  -10.5150 C.2       1 UNK         0.0000
     14 C8          7.0050   -6.5090  -11.6680 C.ar      1 UNK         0.0000
     15 C9          6.0230   -6.2120  -12.6030 C.ar      1 UNK         0.0000
     16 C10         7.0140   -7.7500  -11.0430 C.ar      1 UNK         0.0000
     17 C11         6.3780   -4.7520   -8.6480 C.2       1 UNK         0.0000
     18 C12         5.0190   -4.9540   -6.7090 C.ar      1 UNK         0.0000
     19 C13         4.3500   -6.1880   -6.5650 C.ar      1 UNK         0.0000
     20 C14         5.0610   -7.1600  -12.9190 C.ar      1 UNK         0.0000
     21 C15         4.1200   -6.7060   -5.2670 C.ar      1 UNK         0.0000
     22 C16         6.0500   -8.6900  -11.3560 C.ar      1 UNK         0.0000
     23 C17         5.0750   -8.4000  -12.2910 C.ar      1 UNK         0.0000
     24 C18         5.4370   -4.2760   -5.5840 C.ar      1 UNK         0.0000
     25 C19         3.9080   -6.9110   -7.6840 C.ar      1 UNK         0.0000
     26 C20         4.5610   -5.9830   -4.1450 C.ar      1 UNK         0.0000
     27 C21         5.2040   -4.7950   -4.3130 C.ar      1 UNK         0.0000
     28 C22         3.4540   -7.9350   -5.1250 C.ar      1 UNK         0.0000
     29 C23         3.2660   -8.0990   -7.5100 C.ar      1 UNK         0.0000
     30 C24         3.0390   -8.6090   -6.2330 C.ar      1 UNK         0.0000
     31 H1         12.2980   -4.2020   -9.6500 H         1 UNK         0.0000
     32 H2         11.8530   -5.7820  -10.3390 H         1 UNK         0.0000
     33 H3         13.2490   -4.8890  -10.9870 H         1 UNK         0.0000
     34 H4         10.8330   -4.6550  -13.5910 H         1 UNK         0.0000
     35 H5         12.3390   -3.7180  -13.4410 H         1 UNK         0.0000
     36 H6         12.3040   -5.4300  -12.9560 H         1 UNK         0.0000
     37 H7         12.2680   -2.3530  -10.7090 H         1 UNK         0.0000
     38 H8         11.7230   -2.1370  -12.3900 H         1 UNK         0.0000
     39 H9         10.5350   -2.1580  -11.0640 H         1 UNK         0.0000
     40 H10         9.2110   -2.9220   -9.9200 H         1 UNK         0.0000
     41 H11         6.0580   -3.4870  -10.1850 H         1 UNK         0.0000
     42 H12         6.0130   -5.2460  -13.0870 H         1 UNK         0.0000
     43 H13         7.7740   -7.9790  -10.3120 H         1 UNK         0.0000
     44 H14         4.6120   -3.8180   -8.3780 H         1 UNK         0.0000
     45 H15         6.0590   -9.6540  -10.8700 H         1 UNK         0.0000
     46 H16         4.3240   -9.1360  -12.5330 H         1 UNK         0.0000
     47 H17         5.9490   -3.3310   -5.6890 H         1 UNK         0.0000
     48 H18         4.0770   -6.5260   -8.6800 H         1 UNK         0.0000
     49 H19         4.3870   -6.3690   -3.1520 H         1 UNK         0.0000
     50 H20         5.5400   -4.2460   -3.4460 H         1 UNK         0.0000
     51 H21         3.2710   -8.3440   -4.1420 H         1 UNK         0.0000
     52 H22         2.9280   -8.6530   -8.3720 H         1 UNK         0.0000
     53 H23         2.5270   -9.5530   -6.1210 H         1 UNK         0.0000
     54 H24         4.1130   -6.0350  -14.3620 H         1 UNK         0.0000
     55 H25         3.3520   -7.4940  -14.0220 H         1 UNK         0.0000
@<TRIPOS>BOND
     1    1   17 2
     2    2    3 1
     3    2   13 1
     4    2   14 1
     5    3    8 2
     6    4   13 1
     7    4   17 am
     8    4   41 1
     9    5   17 am
    10    5   18 1
    11    5   44 1
    12    6   20 1
    13    6   54 1
    14    6   55 1
    15    7    8 1
    16    7    9 1
    17    7   10 1
    18    7   11 1
    19    8   12 1
    20    9   31 1
    21    9   32 1
    22    9   33 1
    23   10   34 1
    24   10   35 1
    25   10   36 1
    26   11   37 1
    27   11   38 1
    28   11   39 1
    29   12   13 2
    30   12   40 1
    31   14   15 ar
    32   14   16 ar
    33   15   20 ar
    34   15   42 1
    35   16   22 ar
    36   16   43 1
    37   18   19 ar
    38   18   24 ar
    39   19   21 ar
    40   19   25 ar
    41   20   23 ar
    42   21   26 ar
    43   21   28 ar
    44   22   23 ar
    45   22   45 1
    46   23   46 1
    47   24   27 ar
    48   24   47 1
    49   25   29 ar
    50   25   48 1
    51   26   27 ar
    52   26   49 1
    53   27   50 1
    54   28   30 ar
    55   28   51 1
    56   29   30 ar
    57   29   52 1
    58   30   53 1
