@<TRIPOS>MOLECULE
25174101
   55    58     0     0     0
SMALL
NO_CHARGES

@<TRIPOS>ATOM
      1 O1          5.0770   -9.1730   -9.5930 O.2       1 UNK         0.0000
      2 N1          6.9770   -8.9840  -12.2870 N.pl3     1 UNK         0.0000
      3 N2          7.4130  -10.0940  -13.0210 N.2       1 UNK         0.0000
      4 N3          4.7910   -8.1430  -11.5400 N.am      1 UNK         0.0000
      5 N4          3.7590   -7.3860   -9.5880 N.am      1 UNK         0.0000
      6 N5          9.0970   -4.6620  -12.6560 N.pl3     1 UNK         0.0000
      7 C1          6.3880  -12.0840  -14.1520 C.3       1 UNK         0.0000
      8 C2          6.3650  -10.8050  -13.3560 C.2       1 UNK         0.0000
      9 C3          5.7570  -11.8420  -15.5240 C.3       1 UNK         0.0000
     10 C4          7.8340  -12.5490  -14.3300 C.3       1 UNK         0.0000
     11 C5          5.5940  -13.1610  -13.4080 C.3       1 UNK         0.0000
     12 C6          5.2250  -10.1810  -12.8430 C.2       1 UNK         0.0000
     13 C7          5.6220   -9.0540  -12.1920 C.2       1 UNK         0.0000
     14 C8          7.7920   -7.9800  -11.7470 C.ar      1 UNK         0.0000
     15 C9          8.0430   -6.8240  -12.4710 C.ar      1 UNK         0.0000
     16 C10         8.3550   -8.1440  -10.4870 C.ar      1 UNK         0.0000
     17 C11         4.5600   -8.2670  -10.2180 C.2       1 UNK         0.0000
     18 C12         3.6120   -7.4420   -8.2000 C.ar      1 UNK         0.0000
     19 C13         4.4620   -6.6890   -7.3630 C.ar      1 UNK         0.0000
     20 C14         8.8460   -5.8300  -11.9310 C.ar      1 UNK         0.0000
     21 C15         4.2940   -6.7630   -5.9580 C.ar      1 UNK         0.0000
     22 C16         9.1590   -7.1550   -9.9540 C.ar      1 UNK         0.0000
     23 C17         9.4060   -6.0000  -10.6700 C.ar      1 UNK         0.0000
     24 C18         2.6350   -8.2350   -7.6370 C.ar      1 UNK         0.0000
     25 C19         5.4680   -5.8700   -7.8950 C.ar      1 UNK         0.0000
     26 C20         3.2870   -7.5840   -5.4230 C.ar      1 UNK         0.0000
     27 C21         2.4810   -8.3000   -6.2550 C.ar      1 UNK         0.0000
     28 C22         5.1410   -6.0130   -5.1240 C.ar      1 UNK         0.0000
     29 C23         6.2710   -5.1560   -7.0570 C.ar      1 UNK         0.0000
     30 C24         6.1070   -5.2280   -5.6750 C.ar      1 UNK         0.0000
     31 H1          4.6760  -11.7510  -15.4150 H         1 UNK         0.0000
     32 H2          6.1570  -10.9210  -15.9510 H         1 UNK         0.0000
     33 H3          5.9870  -12.6770  -16.1840 H         1 UNK         0.0000
     34 H4          8.4910  -11.6810  -14.3910 H         1 UNK         0.0000
     35 H5          8.1250  -13.1670  -13.4800 H         1 UNK         0.0000
     36 H6          7.9180  -13.1330  -15.2470 H         1 UNK         0.0000
     37 H7          4.7190  -13.4380  -13.9960 H         1 UNK         0.0000
     38 H8          6.2240  -14.0390  -13.2600 H         1 UNK         0.0000
     39 H9          5.2740  -12.7750  -12.4420 H         1 UNK         0.0000
     40 H10         4.2080  -10.5300  -12.9490 H         1 UNK         0.0000
     41 H11         4.3800   -7.4190  -12.0380 H         1 UNK         0.0000
     42 H12         7.6100   -6.6960  -13.4520 H         1 UNK         0.0000
     43 H13         8.1640   -9.0460   -9.9250 H         1 UNK         0.0000
     44 H14         3.2830   -6.7120  -10.0980 H         1 UNK         0.0000
     45 H15         9.5950   -7.2850   -8.9740 H         1 UNK         0.0000
     46 H16        10.0350   -5.2290  -10.2510 H         1 UNK         0.0000
     47 H17         1.9830   -8.8130   -8.2750 H         1 UNK         0.0000
     48 H18         5.6060   -5.8040   -8.9650 H         1 UNK         0.0000
     49 H19         3.1540   -7.6490   -4.3530 H         1 UNK         0.0000
     50 H20         1.7100   -8.9290   -5.8360 H         1 UNK         0.0000
     51 H21         5.0260   -6.0580   -4.0510 H         1 UNK         0.0000
     52 H22         7.0440   -4.5260   -7.4690 H         1 UNK         0.0000
     53 H23         6.7570   -4.6520   -5.0320 H         1 UNK         0.0000
     54 H24         9.8000   -4.0570  -12.3720 H         1 UNK         0.0000
     55 H25         8.5680   -4.4580  -13.4430 H         1 UNK         0.0000
@<TRIPOS>BOND
     1    1   17 2
     2    2    3 1
     3    2   13 1
     4    2   14 1
     5    3    8 2
     6    4   13 1
     7    4   17 am
     8    4   41 1
     9    5   17 am
    10    5   18 1
    11    5   44 1
    12    6   20 1
    13    6   54 1
    14    6   55 1
    15    7    8 1
    16    7    9 1
    17    7   10 1
    18    7   11 1
    19    8   12 1
    20    9   31 1
    21    9   32 1
    22    9   33 1
    23   10   34 1
    24   10   35 1
    25   10   36 1
    26   11   37 1
    27   11   38 1
    28   11   39 1
    29   12   13 2
    30   12   40 1
    31   14   15 ar
    32   14   16 ar
    33   15   20 ar
    34   15   42 1
    35   16   22 ar
    36   16   43 1
    37   18   19 ar
    38   18   24 ar
    39   19   21 ar
    40   19   25 ar
    41   20   23 ar
    42   21   26 ar
    43   21   28 ar
    44   22   23 ar
    45   22   45 1
    46   23   46 1
    47   24   27 ar
    48   24   47 1
    49   25   29 ar
    50   25   48 1
    51   26   27 ar
    52   26   49 1
    53   27   50 1
    54   28   30 ar
    55   28   51 1
    56   29   30 ar
    57   29   52 1
    58   30   53 1
