@<TRIPOS>MOLECULE
25174101
   55    58     0     0     0
SMALL
NO_CHARGES

@<TRIPOS>ATOM
      1 O1          8.9330   -5.1820   -9.6440 O.2       1 UNK         0.0000
      2 N1          6.2880   -6.5300  -11.5540 N.pl3     1 UNK         0.0000
      3 N2          5.4480   -7.4590  -10.9280 N.2       1 UNK         0.0000
      4 N3          7.2900   -4.3810  -10.9050 N.am      1 UNK         0.0000
      5 N4          9.2700   -3.1900  -10.5670 N.am      1 UNK         0.0000
      6 N5          8.7140   -9.0120  -14.9090 N.pl3     1 UNK         0.0000
      7 C1          4.2980   -7.7210   -8.7160 C.3       1 UNK         0.0000
      8 C2          5.1700   -7.0220   -9.7260 C.2       1 UNK         0.0000
      9 C3          4.3950   -6.9970   -7.3710 C.3       1 UNK         0.0000
     10 C4          2.8470   -7.7080   -9.1980 C.3       1 UNK         0.0000
     11 C5          4.7670   -9.1680   -8.5510 C.3       1 UNK         0.0000
     12 C6          5.8270   -5.8030   -9.5360 C.2       1 UNK         0.0000
     13 C7          6.5070   -5.5120  -10.6780 C.2       1 UNK         0.0000
     14 C8          6.8100   -6.6300  -12.8500 C.ar      1 UNK         0.0000
     15 C9          7.5060   -7.7680  -13.2330 C.ar      1 UNK         0.0000
     16 C10         6.6370   -5.5880  -13.7520 C.ar      1 UNK         0.0000
     17 C11         8.5130   -4.2830  -10.3460 C.2       1 UNK         0.0000
     18 C12        10.5800   -3.1390  -10.0860 C.ar      1 UNK         0.0000
     19 C13        11.1230   -1.9210   -9.6260 C.ar      1 UNK         0.0000
     20 C14         8.0170   -7.8660  -14.5190 C.ar      1 UNK         0.0000
     21 C15        12.4540   -1.8930   -9.1440 C.ar      1 UNK         0.0000
     22 C16         7.1520   -5.6860  -15.0310 C.ar      1 UNK         0.0000
     23 C17         7.8400   -6.8190  -15.4170 C.ar      1 UNK         0.0000
     24 C18        11.3540   -4.2790  -10.0580 C.ar      1 UNK         0.0000
     25 C19        10.3690   -0.7370   -9.6370 C.ar      1 UNK         0.0000
     26 C20        13.2110   -3.0770   -9.1320 C.ar      1 UNK         0.0000
     27 C21        12.6620   -4.2380   -9.5820 C.ar      1 UNK         0.0000
     28 C22        12.9950   -0.6790   -8.6850 C.ar      1 UNK         0.0000
     29 C23        10.9240    0.4210   -9.1850 C.ar      1 UNK         0.0000
     30 C24        12.2340    0.4500   -8.7110 C.ar      1 UNK         0.0000
     31 H1          3.4440   -6.5120   -7.1510 H         1 UNK         0.0000
     32 H2          4.6260   -7.7180   -6.5860 H         1 UNK         0.0000
     33 H3          5.1840   -6.2470   -7.4180 H         1 UNK         0.0000
     34 H4          2.2440   -7.0990   -8.5240 H         1 UNK         0.0000
     35 H5          2.8010   -7.2910  -10.2040 H         1 UNK         0.0000
     36 H6          2.4590   -8.7270   -9.2110 H         1 UNK         0.0000
     37 H7          5.1940   -9.3000   -7.5560 H         1 UNK         0.0000
     38 H8          3.9190   -9.8420   -8.6730 H         1 UNK         0.0000
     39 H9          5.5220   -9.3930   -9.3030 H         1 UNK         0.0000
     40 H10         5.7960   -5.1980   -8.6410 H         1 UNK         0.0000
     41 H11         6.9550   -3.6630  -11.4670 H         1 UNK         0.0000
     42 H12         7.6450   -8.5780  -12.5320 H         1 UNK         0.0000
     43 H13         6.1000   -4.7000  -13.4530 H         1 UNK         0.0000
     44 H14         8.9040   -2.4390  -11.0590 H         1 UNK         0.0000
     45 H15         7.0160   -4.8740  -15.7310 H         1 UNK         0.0000
     46 H16         8.2410   -6.8930  -16.4170 H         1 UNK         0.0000
     47 H17        10.9420   -5.2130  -10.4100 H         1 UNK         0.0000
     48 H18         9.3520   -0.7450  -10.0020 H         1 UNK         0.0000
     49 H19        14.2280   -3.0650   -8.7700 H         1 UNK         0.0000
     50 H20        13.2500   -5.1440   -9.5700 H         1 UNK         0.0000
     51 H21        14.0080   -0.6420   -8.3140 H         1 UNK         0.0000
     52 H22        10.3410    1.3300   -9.1950 H         1 UNK         0.0000
     53 H23        12.6520    1.3810   -8.3580 H         1 UNK         0.0000
     54 H24         9.1350   -9.0490  -15.7820 H         1 UNK         0.0000
     55 H25         8.7760   -9.7700  -14.3070 H         1 UNK         0.0000
@<TRIPOS>BOND
     1    1   17 2
     2    2    3 1
     3    2   13 1
     4    2   14 1
     5    3    8 2
     6    4   13 1
     7    4   17 am
     8    4   41 1
     9    5   17 am
    10    5   18 1
    11    5   44 1
    12    6   20 1
    13    6   54 1
    14    6   55 1
    15    7    8 1
    16    7    9 1
    17    7   10 1
    18    7   11 1
    19    8   12 1
    20    9   31 1
    21    9   32 1
    22    9   33 1
    23   10   34 1
    24   10   35 1
    25   10   36 1
    26   11   37 1
    27   11   38 1
    28   11   39 1
    29   12   13 2
    30   12   40 1
    31   14   15 ar
    32   14   16 ar
    33   15   20 ar
    34   15   42 1
    35   16   22 ar
    36   16   43 1
    37   18   19 ar
    38   18   24 ar
    39   19   21 ar
    40   19   25 ar
    41   20   23 ar
    42   21   26 ar
    43   21   28 ar
    44   22   23 ar
    45   22   45 1
    46   23   46 1
    47   24   27 ar
    48   24   47 1
    49   25   29 ar
    50   25   48 1
    51   26   27 ar
    52   26   49 1
    53   27   50 1
    54   28   30 ar
    55   28   51 1
    56   29   30 ar
    57   29   52 1
    58   30   53 1
