@<TRIPOS>MOLECULE
5328940
   65    68     0     0     0
SMALL
NO_CHARGES

@<TRIPOS>ATOM
      1 Cl1         3.2670  -28.2260    1.0230 Cl        1 UNK         0.0000
      2 Cl2         6.8030  -31.4900   -1.4300 Cl        1 UNK         0.0000
      3 O1          7.8650  -25.1560    5.5230 O.3       1 UNK         0.0000
      4 O2          6.0720  -27.0780    4.7250 O.3       1 UNK         0.0000
      5 O3          8.0840  -28.9580   -2.2470 O.3       1 UNK         0.0000
      6 N1         10.3340  -26.4850    3.3290 N.3       1 UNK         0.0000
      7 N2         10.3460  -26.3800    0.4840 N.3       1 UNK         0.0000
      8 N3          4.9540  -26.0440   -0.0870 N.pl3     1 UNK         0.0000
      9 N4          7.6770  -23.1800    1.2100 N.ar      1 UNK         0.0000
     10 N5          5.4510  -23.9340   -2.9190 N.1       1 UNK         0.0000
     11 C1          9.8810  -27.6350    2.5340 C.3       1 UNK         0.0000
     12 C2         11.3680  -25.7260    2.6100 C.3       1 UNK         0.0000
     13 C3          9.3130  -27.1400    1.2030 C.3       1 UNK         0.0000
     14 C4         10.7990  -25.2310    1.2790 C.3       1 UNK         0.0000
     15 C5         10.8180  -26.9140    4.6480 C.3       1 UNK         0.0000
     16 C6          9.7210  -26.6940    5.6910 C.3       1 UNK         0.0000
     17 C7          9.8630  -25.9520   -0.8350 C.3       1 UNK         0.0000
     18 C8          9.2840  -25.2290    5.6720 C.3       1 UNK         0.0000
     19 C9          7.3770  -25.1350    4.2550 C.ar      1 UNK         0.0000
     20 C10         6.4620  -26.1160    3.8470 C.ar      1 UNK         0.0000
     21 C11         6.3610  -25.1220    1.6710 C.ar      1 UNK         0.0000
     22 C12         7.7870  -24.1510    3.3840 C.ar      1 UNK         0.0000
     23 C13         7.2850  -24.1280    2.0740 C.ar      1 UNK         0.0000
     24 C14         5.9600  -26.1140    2.5790 C.ar      1 UNK         0.0000
     25 C15         5.8570  -25.0950    0.3500 C.ar      1 UNK         0.0000
     26 C16         6.3040  -24.0740   -0.5010 C.ar      1 UNK         0.0000
     27 C17         7.2230  -23.1280   -0.0160 C.ar      1 UNK         0.0000
     28 C18         5.3940  -27.3320   -0.4060 C.ar      1 UNK         0.0000
     29 C19         6.5340  -27.5060   -1.1760 C.ar      1 UNK         0.0000
     30 C20         6.6080  -28.3900    4.5310 C.3       1 UNK         0.0000
     31 C21         4.6910  -28.4410    0.0530 C.ar      1 UNK         0.0000
     32 C22         6.9680  -28.7850   -1.4920 C.ar      1 UNK         0.0000
     33 C23         5.8280  -23.9950   -1.8500 C.1       1 UNK         0.0000
     34 C24         5.1230  -29.7150   -0.2670 C.ar      1 UNK         0.0000
     35 C25         6.2600  -29.8880   -1.0360 C.ar      1 UNK         0.0000
     36 C26         8.0330  -28.4910   -3.5970 C.3       1 UNK         0.0000
     37 H1         10.7240  -28.3010    2.3460 H         1 UNK         0.0000
     38 H2          9.1080  -28.1730    3.0830 H         1 UNK         0.0000
     39 H3         11.6770  -24.8730    3.2140 H         1 UNK         0.0000
     40 H4         12.2260  -26.3700    2.4220 H         1 UNK         0.0000
     41 H5          8.4540  -26.4960    1.3920 H         1 UNK         0.0000
     42 H6          9.0030  -27.9930    0.6000 H         1 UNK         0.0000
     43 H7          9.9570  -24.5650    1.4680 H         1 UNK         0.0000
     44 H8         11.5720  -24.6920    0.7320 H         1 UNK         0.0000
     45 H9         11.6990  -26.3320    4.9190 H         1 UNK         0.0000
     46 H10        11.0780  -27.9720    4.6130 H         1 UNK         0.0000
     47 H11        10.1040  -26.9460    6.6800 H         1 UNK         0.0000
     48 H12         8.8660  -27.3310    5.4610 H         1 UNK         0.0000
     49 H13         9.7320  -26.8230   -1.4750 H         1 UNK         0.0000
     50 H14         8.9080  -25.4380   -0.7230 H         1 UNK         0.0000
     51 H15        10.5890  -25.2750   -1.2850 H         1 UNK         0.0000
     52 H16         9.7640  -24.7180    4.8370 H         1 UNK         0.0000
     53 H17         9.5760  -24.7500    6.6070 H         1 UNK         0.0000
     54 H18         8.4920  -23.4000    3.7080 H         1 UNK         0.0000
     55 H19         5.2550  -26.8730    2.2730 H         1 UNK         0.0000
     56 H20         4.0150  -25.8170   -0.1730 H         1 UNK         0.0000
     57 H21         7.5650  -22.3430   -0.6720 H         1 UNK         0.0000
     58 H22         7.0840  -26.6470   -1.5310 H         1 UNK         0.0000
     59 H23         6.3390  -29.0220    5.3760 H         1 UNK         0.0000
     60 H24         6.2000  -28.8150    3.6140 H         1 UNK         0.0000
     61 H25         7.6940  -28.3290    4.4520 H         1 UNK         0.0000
     62 H26         4.5740  -30.5750    0.0870 H         1 UNK         0.0000
     63 H27         7.2790  -29.0530   -4.1470 H         1 UNK         0.0000
     64 H28         7.7780  -27.4320   -3.6060 H         1 UNK         0.0000
     65 H29         9.0070  -28.6340   -4.0670 H         1 UNK         0.0000
@<TRIPOS>BOND
     1    1   31 1
     2    2   35 1
     3    3   18 1
     4    3   19 1
     5    4   20 1
     6    4   30 1
     7    5   32 1
     8    5   36 1
     9    6   11 1
    10    6   12 1
    11    6   15 1
    12    7   13 1
    13    7   14 1
    14    7   17 1
    15    8   25 1
    16    8   28 1
    17    8   56 1
    18    9   23 ar
    19    9   27 ar
    20   10   33 3
    21   11   13 1
    22   11   37 1
    23   11   38 1
    24   12   14 1
    25   12   39 1
    26   12   40 1
    27   13   41 1
    28   13   42 1
    29   14   43 1
    30   14   44 1
    31   15   16 1
    32   15   45 1
    33   15   46 1
    34   16   18 1
    35   16   47 1
    36   16   48 1
    37   17   49 1
    38   17   50 1
    39   17   51 1
    40   18   52 1
    41   18   53 1
    42   19   20 ar
    43   19   22 ar
    44   20   24 ar
    45   21   23 ar
    46   21   24 ar
    47   21   25 ar
    48   22   23 ar
    49   22   54 1
    50   24   55 1
    51   25   26 ar
    52   26   27 ar
    53   26   33 1
    54   27   57 1
    55   28   29 ar
    56   28   31 ar
    57   29   32 ar
    58   29   58 1
    59   30   59 1
    60   30   60 1
    61   30   61 1
    62   31   34 ar
    63   32   35 ar
    64   34   35 ar
    65   34   62 1
    66   36   63 1
    67   36   64 1
    68   36   65 1
