@<TRIPOS>MOLECULE
5328940
   65    68     0     0     0
SMALL
NO_CHARGES

@<TRIPOS>ATOM
      1 Cl1        12.4610  -27.1460    0.9090 Cl        1 UNK         0.0000
      2 Cl2         9.6810  -31.3690   -0.9910 Cl        1 UNK         0.0000
      3 O1          7.3060  -24.3060    4.8200 O.3       1 UNK         0.0000
      4 O2          9.4400  -25.9660    4.3350 O.3       1 UNK         0.0000
      5 O3          8.0200  -29.2890   -2.2720 O.3       1 UNK         0.0000
      6 N1          5.1650  -26.3740    2.8590 N.3       1 UNK         0.0000
      7 N2          5.2180  -26.7320    0.0340 N.3       1 UNK         0.0000
      8 N3         10.4660  -25.5280   -0.5880 N.pl3     1 UNK         0.0000
      9 N4          7.2420  -23.0360    0.2450 N.ar      1 UNK         0.0000
     10 N5          9.6620  -24.0250   -3.7210 N.1       1 UNK         0.0000
     11 C1          4.0390  -25.9300    2.0250 C.3       1 UNK         0.0000
     12 C2          5.8290  -27.5420    2.2620 C.3       1 UNK         0.0000
     13 C3          4.5530  -25.5640    0.6310 C.3       1 UNK         0.0000
     14 C4          6.3430  -27.1760    0.8690 C.3       1 UNK         0.0000
     15 C5          4.7230  -26.6630    4.2290 C.3       1 UNK         0.0000
     16 C6          5.7420  -26.1030    5.2240 C.3       1 UNK         0.0000
     17 C7          5.6590  -26.4440   -1.3360 C.3       1 UNK         0.0000
     18 C8          5.9180  -24.6030    4.9850 C.3       1 UNK         0.0000
     19 C9          7.8130  -24.3990    3.5630 C.ar      1 UNK         0.0000
     20 C10         8.9020  -25.2460    3.3150 C.ar      1 UNK         0.0000
     21 C11         8.8720  -24.6120    1.0050 C.ar      1 UNK         0.0000
     22 C12         7.2510  -23.6600    2.5460 C.ar      1 UNK         0.0000
     23 C13         7.7730  -23.7540    1.2470 C.ar      1 UNK         0.0000
     24 C14         9.4260  -25.3550    2.0590 C.ar      1 UNK         0.0000
     25 C15         9.3950  -24.7050   -0.3050 C.ar      1 UNK         0.0000
     26 C16         8.7900  -23.9320   -1.3080 C.ar      1 UNK         0.0000
     27 C17         7.7020  -23.1070   -0.9770 C.ar      1 UNK         0.0000
     28 C18        10.2780  -26.9110   -0.6850 C.ar      1 UNK         0.0000
     29 C19         9.2300  -27.4180   -1.4400 C.ar      1 UNK         0.0000
     30 C20         9.1620  -27.3690    4.3540 C.3       1 UNK         0.0000
     31 C21        11.1450  -27.7790   -0.0300 C.ar      1 UNK         0.0000
     32 C22         9.0460  -28.7890   -1.5340 C.ar      1 UNK         0.0000
     33 C23         9.2760  -23.9840   -2.6540 C.1       1 UNK         0.0000
     34 C24        10.9560  -29.1450   -0.1220 C.ar      1 UNK         0.0000
     35 C25         9.9110  -29.6510   -0.8730 C.ar      1 UNK         0.0000
     36 C26         7.8330  -28.7400   -3.5790 C.3       1 UNK         0.0000
     37 H1          3.3070  -26.7340    1.9440 H         1 UNK         0.0000
     38 H2          3.5720  -25.0570    2.4810 H         1 UNK         0.0000
     39 H3          6.6670  -27.8440    2.8920 H         1 UNK         0.0000
     40 H4          5.1180  -28.3640    2.1840 H         1 UNK         0.0000
     41 H5          5.2650  -24.7420    0.7100 H         1 UNK         0.0000
     42 H6          3.7160  -25.2620    0.0020 H         1 UNK         0.0000
     43 H7          7.0750  -26.3720    0.9500 H         1 UNK         0.0000
     44 H8          6.8110  -28.0490    0.4130 H         1 UNK         0.0000
     45 H9          4.6380  -27.7410    4.3640 H         1 UNK         0.0000
     46 H10         3.7530  -26.1980    4.4040 H         1 UNK         0.0000
     47 H11         6.6980  -26.6080    5.0870 H         1 UNK         0.0000
     48 H12         5.3870  -26.2690    6.2410 H         1 UNK         0.0000
     49 H13         6.3380  -27.2270   -1.6720 H         1 UNK         0.0000
     50 H14         4.7930  -26.4060   -1.9960 H         1 UNK         0.0000
     51 H15         6.1740  -25.4830   -1.3570 H         1 UNK         0.0000
     52 H16         5.5270  -24.0510    5.8390 H         1 UNK         0.0000
     53 H17         5.3750  -24.3120    4.0850 H         1 UNK         0.0000
     54 H18         6.4130  -23.0100    2.7480 H         1 UNK         0.0000
     55 H19        10.2650  -26.0100    1.8770 H         1 UNK         0.0000
     56 H20        11.3490  -25.1490   -0.7200 H         1 UNK         0.0000
     57 H21         7.2380  -22.5140   -1.7500 H         1 UNK         0.0000
     58 H22         8.5580  -26.7460   -1.9530 H         1 UNK         0.0000
     59 H23         9.5740  -27.8090    5.2620 H         1 UNK         0.0000
     60 H24         8.0840  -27.5250    4.3310 H         1 UNK         0.0000
     61 H25         9.6170  -27.8410    3.4830 H         1 UNK         0.0000
     62 H26        11.6280  -29.8180    0.3910 H         1 UNK         0.0000
     63 H27         8.7870  -28.7220   -4.1050 H         1 UNK         0.0000
     64 H28         7.1220  -29.3530   -4.1320 H         1 UNK         0.0000
     65 H29         7.4460  -27.7240   -3.4930 H         1 UNK         0.0000
@<TRIPOS>BOND
     1    1   31 1
     2    2   35 1
     3    3   18 1
     4    3   19 1
     5    4   20 1
     6    4   30 1
     7    5   32 1
     8    5   36 1
     9    6   11 1
    10    6   12 1
    11    6   15 1
    12    7   13 1
    13    7   14 1
    14    7   17 1
    15    8   25 1
    16    8   28 1
    17    8   56 1
    18    9   23 ar
    19    9   27 ar
    20   10   33 3
    21   11   13 1
    22   11   37 1
    23   11   38 1
    24   12   14 1
    25   12   39 1
    26   12   40 1
    27   13   41 1
    28   13   42 1
    29   14   43 1
    30   14   44 1
    31   15   16 1
    32   15   45 1
    33   15   46 1
    34   16   18 1
    35   16   47 1
    36   16   48 1
    37   17   49 1
    38   17   50 1
    39   17   51 1
    40   18   52 1
    41   18   53 1
    42   19   20 ar
    43   19   22 ar
    44   20   24 ar
    45   21   23 ar
    46   21   24 ar
    47   21   25 ar
    48   22   23 ar
    49   22   54 1
    50   24   55 1
    51   25   26 ar
    52   26   27 ar
    53   26   33 1
    54   27   57 1
    55   28   29 ar
    56   28   31 ar
    57   29   32 ar
    58   29   58 1
    59   30   59 1
    60   30   60 1
    61   30   61 1
    62   31   34 ar
    63   32   35 ar
    64   34   35 ar
    65   34   62 1
    66   36   63 1
    67   36   64 1
    68   36   65 1
