@<TRIPOS>MOLECULE
5328940
   65    68     0     0     0
SMALL
NO_CHARGES

@<TRIPOS>ATOM
      1 Cl1         6.9320  -23.9010    4.2400 Cl        1 UNK         0.0000
      2 Cl2         4.8010  -28.8580    4.4850 Cl        1 UNK         0.0000
      3 O1          4.5420  -23.6610   -4.7500 O.3       1 UNK         0.0000
      4 O2          3.1610  -23.2970   -2.4030 O.3       1 UNK         0.0000
      5 O3          4.5850  -28.5600    1.5550 O.3       1 UNK         0.0000
      6 N1          7.5350  -24.0160   -6.7060 N.3       1 UNK         0.0000
      7 N2         10.2110  -23.8800   -5.7410 N.3       1 UNK         0.0000
      8 N3          6.4630  -24.1590    1.3160 N.pl3     1 UNK         0.0000
      9 N4          8.4720  -24.6810   -2.2890 N.ar      1 UNK         0.0000
     10 N5          9.7900  -25.0270    2.2620 N.1       1 UNK         0.0000
     11 C1          8.2500  -22.7320   -6.6540 C.3       1 UNK         0.0000
     12 C2          8.4710  -25.1270   -6.9300 C.3       1 UNK         0.0000
     13 C3          9.2750  -22.7680   -5.5190 C.3       1 UNK         0.0000
     14 C4          9.4960  -25.1620   -5.7950 C.3       1 UNK         0.0000
     15 C5          6.4880  -23.9930   -7.7360 C.3       1 UNK         0.0000
     16 C6          5.1440  -23.6530   -7.0900 C.3       1 UNK         0.0000
     17 C7         11.2580  -23.9020   -4.7130 C.3       1 UNK         0.0000
     18 C8          4.9530  -24.4990   -5.8310 C.3       1 UNK         0.0000
     19 C9          5.1800  -23.8270   -3.5620 C.ar      1 UNK         0.0000
     20 C10         4.4760  -23.6410   -2.3640 C.ar      1 UNK         0.0000
     21 C11         6.4540  -24.1580   -1.1170 C.ar      1 UNK         0.0000
     22 C12         6.5110  -24.1760   -3.5480 C.ar      1 UNK         0.0000
     23 C13         7.1730  -24.3470   -2.3220 C.ar      1 UNK         0.0000
     24 C14         5.0970  -23.8030   -1.1600 C.ar      1 UNK         0.0000
     25 C15         7.1230  -24.3320    0.1160 C.ar      1 UNK         0.0000
     26 C16         8.4800  -24.6870    0.0800 C.ar      1 UNK         0.0000
     27 C17         9.1140  -24.8540   -1.1620 C.ar      1 UNK         0.0000
     28 C18         6.0690  -25.2720    2.0640 C.ar      1 UNK         0.0000
     29 C19         5.5170  -26.3760    1.4290 C.ar      1 UNK         0.0000
     30 C20         2.6060  -22.7210   -1.2180 C.3       1 UNK         0.0000
     31 C21         6.2350  -25.2780    3.4450 C.ar      1 UNK         0.0000
     32 C22         5.1270  -27.4780    2.1740 C.ar      1 UNK         0.0000
     33 C23         9.2110  -24.8770    1.2970 C.1       1 UNK         0.0000
     34 C24         5.8400  -26.3760    4.1850 C.ar      1 UNK         0.0000
     35 C25         5.2900  -27.4760    3.5520 C.ar      1 UNK         0.0000
     36 C26         4.0200  -28.3510    0.2580 C.3       1 UNK         0.0000
     37 H1          8.7620  -22.5620   -7.6020 H         1 UNK         0.0000
     38 H2          7.5380  -21.9270   -6.4750 H         1 UNK         0.0000
     39 H3          7.9190  -26.0660   -6.9510 H         1 UNK         0.0000
     40 H4          8.9850  -24.9840   -7.8790 H         1 UNK         0.0000
     41 H5          8.7610  -22.9110   -4.5680 H         1 UNK         0.0000
     42 H6          9.8270  -21.8280   -5.4960 H         1 UNK         0.0000
     43 H7          8.9850  -25.3330   -4.8470 H         1 UNK         0.0000
     44 H8         10.2080  -25.9680   -5.9730 H         1 UNK         0.0000
     45 H9          6.4260  -24.9710   -8.2110 H         1 UNK         0.0000
     46 H10         6.7310  -23.2400   -8.4850 H         1 UNK         0.0000
     47 H11         4.3390  -23.8630   -7.7950 H         1 UNK         0.0000
     48 H12         5.1250  -22.5960   -6.8230 H         1 UNK         0.0000
     49 H13        11.9790  -23.1090   -4.9100 H         1 UNK         0.0000
     50 H14        10.8080  -23.7470   -3.7320 H         1 UNK         0.0000
     51 H15        11.7650  -24.8670   -4.7320 H         1 UNK         0.0000
     52 H16         5.8940  -24.9870   -5.5750 H         1 UNK         0.0000
     53 H17         4.1890  -25.2560   -6.0140 H         1 UNK         0.0000
     54 H18         7.0440  -24.3160   -4.4760 H         1 UNK         0.0000
     55 H19         4.5470  -23.6580   -0.2420 H         1 UNK         0.0000
     56 H20         6.2730  -23.2650    1.6400 H         1 UNK         0.0000
     57 H21        10.1580  -25.1270   -1.1880 H         1 UNK         0.0000
     58 H22         5.3910  -26.3760    0.3570 H         1 UNK         0.0000
     59 H23         2.0690  -21.8080   -1.4730 H         1 UNK         0.0000
     60 H24         1.9170  -23.4310   -0.7580 H         1 UNK         0.0000
     61 H25         3.4080  -22.4880   -0.5180 H         1 UNK         0.0000
     62 H26         5.9670  -26.3770    5.2580 H         1 UNK         0.0000
     63 H27         3.3420  -27.4980    0.2910 H         1 UNK         0.0000
     64 H28         4.8170  -28.1550   -0.4580 H         1 UNK         0.0000
     65 H29         3.4680  -29.2410   -0.0450 H         1 UNK         0.0000
@<TRIPOS>BOND
     1    1   31 1
     2    2   35 1
     3    3   18 1
     4    3   19 1
     5    4   20 1
     6    4   30 1
     7    5   32 1
     8    5   36 1
     9    6   11 1
    10    6   12 1
    11    6   15 1
    12    7   13 1
    13    7   14 1
    14    7   17 1
    15    8   25 1
    16    8   28 1
    17    8   56 1
    18    9   23 ar
    19    9   27 ar
    20   10   33 3
    21   11   13 1
    22   11   37 1
    23   11   38 1
    24   12   14 1
    25   12   39 1
    26   12   40 1
    27   13   41 1
    28   13   42 1
    29   14   43 1
    30   14   44 1
    31   15   16 1
    32   15   45 1
    33   15   46 1
    34   16   18 1
    35   16   47 1
    36   16   48 1
    37   17   49 1
    38   17   50 1
    39   17   51 1
    40   18   52 1
    41   18   53 1
    42   19   20 ar
    43   19   22 ar
    44   20   24 ar
    45   21   23 ar
    46   21   24 ar
    47   21   25 ar
    48   22   23 ar
    49   22   54 1
    50   24   55 1
    51   25   26 ar
    52   26   27 ar
    53   26   33 1
    54   27   57 1
    55   28   29 ar
    56   28   31 ar
    57   29   32 ar
    58   29   58 1
    59   30   59 1
    60   30   60 1
    61   30   61 1
    62   31   34 ar
    63   32   35 ar
    64   34   35 ar
    65   34   62 1
    66   36   63 1
    67   36   64 1
    68   36   65 1
