@<TRIPOS>MOLECULE
5328940
   65    68     0     0     0
SMALL
NO_CHARGES

@<TRIPOS>ATOM
      1 Cl1         1.6370  -22.7210   -0.9640 Cl        1 UNK         0.0000
      2 Cl2         0.4860  -27.6960    0.7970 Cl        1 UNK         0.0000
      3 O1         10.5280  -24.5660    0.9960 O.3       1 UNK         0.0000
      4 O2          8.3340  -23.8340    2.4790 O.3       1 UNK         0.0000
      5 O3          3.4210  -28.0210    0.8150 O.3       1 UNK         0.0000
      6 N1          9.2370  -27.7180    1.7220 N.3       1 UNK         0.0000
      7 N2          7.7390  -29.5990    0.1980 N.3       1 UNK         0.0000
      8 N3          4.4650  -23.6160   -0.7560 N.pl3     1 UNK         0.0000
      9 N4          7.8420  -24.7270   -2.9150 N.ar      1 UNK         0.0000
     10 N5          3.3030  -23.9890   -4.1070 N.1       1 UNK         0.0000
     11 C1          7.7860  -27.5570    1.5480 C.3       1 UNK         0.0000
     12 C2          9.6120  -29.1390    1.7050 C.3       1 UNK         0.0000
     13 C3          7.3630  -28.1780    0.2150 C.3       1 UNK         0.0000
     14 C4          9.1880  -29.7590    0.3730 C.3       1 UNK         0.0000
     15 C5          9.6940  -27.0660    2.9560 C.3       1 UNK         0.0000
     16 C6         10.9590  -26.2560    2.6690 C.3       1 UNK         0.0000
     17 C7          7.2810  -30.2500   -1.0360 C.3       1 UNK         0.0000
     18 C8         11.0100  -25.8980    1.1830 C.3       1 UNK         0.0000
     19 C9          9.3220  -24.4250    0.3870 C.ar      1 UNK         0.0000
     20 C10         8.2020  -24.0520    1.1430 C.ar      1 UNK         0.0000
     21 C11         6.8430  -24.1280   -0.8270 C.ar      1 UNK         0.0000
     22 C12         9.2130  -24.6500   -0.9670 C.ar      1 UNK         0.0000
     23 C13         7.9680  -24.5060   -1.5980 C.ar      1 UNK         0.0000
     24 C14         6.9810  -23.9040    0.5510 C.ar      1 UNK         0.0000
     25 C15         5.5900  -23.9830   -1.4670 C.ar      1 UNK         0.0000
     26 C16         5.5280  -24.2240   -2.8480 C.ar      1 UNK         0.0000
     27 C17         6.6960  -24.5950   -3.5340 C.ar      1 UNK         0.0000
     28 C18         3.5250  -24.5840   -0.3880 C.ar      1 UNK         0.0000
     29 C19         3.9460  -25.8360    0.0360 C.ar      1 UNK         0.0000
     30 C20         7.2310  -24.2090    3.3090 C.3       1 UNK         0.0000
     31 C21         2.1670  -24.2900   -0.4410 C.ar      1 UNK         0.0000
     32 C22         3.0120  -26.7930    0.4000 C.ar      1 UNK         0.0000
     33 C23         4.2870  -24.0930   -3.5510 C.1       1 UNK         0.0000
     34 C24         1.2370  -25.2480   -0.0820 C.ar      1 UNK         0.0000
     35 C25         1.6570  -26.4970    0.3400 C.ar      1 UNK         0.0000
     36 C26         4.0360  -28.0990    2.1030 C.3       1 UNK         0.0000
     37 H1          7.2650  -28.0570    2.3650 H         1 UNK         0.0000
     38 H2          7.5360  -26.4960    1.5510 H         1 UNK         0.0000
     39 H3         10.6920  -29.2300    1.8230 H         1 UNK         0.0000
     40 H4          9.1110  -29.6560    2.5230 H         1 UNK         0.0000
     41 H5          7.8640  -27.6600   -0.6030 H         1 UNK         0.0000
     42 H6          6.2830  -28.0860    0.0970 H         1 UNK         0.0000
     43 H7          9.7100  -29.2600   -0.4440 H         1 UNK         0.0000
     44 H8          9.4410  -30.8190    0.3690 H         1 UNK         0.0000
     45 H9          9.9120  -27.8250    3.7080 H         1 UNK         0.0000
     46 H10         8.9140  -26.4020    3.3270 H         1 UNK         0.0000
     47 H11        11.8370  -26.8480    2.9300 H         1 UNK         0.0000
     48 H12        10.9490  -25.3410    3.2630 H         1 UNK         0.0000
     49 H13         7.9710  -31.0490   -1.3030 H         1 UNK         0.0000
     50 H14         6.2860  -30.6670   -0.8790 H         1 UNK         0.0000
     51 H15         7.2450  -29.5160   -1.8410 H         1 UNK         0.0000
     52 H16        10.3860  -26.5920    0.6200 H         1 UNK         0.0000
     53 H17        12.0390  -25.9650    0.8280 H         1 UNK         0.0000
     54 H18        10.0820  -24.9380   -1.5400 H         1 UNK         0.0000
     55 H19         6.1240  -23.6160    1.1410 H         1 UNK         0.0000
     56 H20         4.3270  -22.6880   -0.5120 H         1 UNK         0.0000
     57 H21         6.6470  -24.7790   -4.5960 H         1 UNK         0.0000
     58 H22         5.0010  -26.0650    0.0820 H         1 UNK         0.0000
     59 H23         6.6370  -24.9700    2.8030 H         1 UNK         0.0000
     60 H24         7.6060  -24.6070    4.2510 H         1 UNK         0.0000
     61 H25         6.6110  -23.3340    3.5040 H         1 UNK         0.0000
     62 H26         0.1820  -25.0200   -0.1270 H         1 UNK         0.0000
     63 H27         3.9370  -29.1120    2.4920 H         1 UNK         0.0000
     64 H28         5.0920  -27.8420    2.0180 H         1 UNK         0.0000
     65 H29         3.5450  -27.4000    2.7820 H         1 UNK         0.0000
@<TRIPOS>BOND
     1    1   31 1
     2    2   35 1
     3    3   18 1
     4    3   19 1
     5    4   20 1
     6    4   30 1
     7    5   32 1
     8    5   36 1
     9    6   11 1
    10    6   12 1
    11    6   15 1
    12    7   13 1
    13    7   14 1
    14    7   17 1
    15    8   25 1
    16    8   28 1
    17    8   56 1
    18    9   23 ar
    19    9   27 ar
    20   10   33 3
    21   11   13 1
    22   11   37 1
    23   11   38 1
    24   12   14 1
    25   12   39 1
    26   12   40 1
    27   13   41 1
    28   13   42 1
    29   14   43 1
    30   14   44 1
    31   15   16 1
    32   15   45 1
    33   15   46 1
    34   16   18 1
    35   16   47 1
    36   16   48 1
    37   17   49 1
    38   17   50 1
    39   17   51 1
    40   18   52 1
    41   18   53 1
    42   19   20 ar
    43   19   22 ar
    44   20   24 ar
    45   21   23 ar
    46   21   24 ar
    47   21   25 ar
    48   22   23 ar
    49   22   54 1
    50   24   55 1
    51   25   26 ar
    52   26   27 ar
    53   26   33 1
    54   27   57 1
    55   28   29 ar
    56   28   31 ar
    57   29   32 ar
    58   29   58 1
    59   30   59 1
    60   30   60 1
    61   30   61 1
    62   31   34 ar
    63   32   35 ar
    64   34   35 ar
    65   34   62 1
    66   36   63 1
    67   36   64 1
    68   36   65 1
