@<TRIPOS>MOLECULE
5328940
   65    68     0     0     0
SMALL
NO_CHARGES

@<TRIPOS>ATOM
      1 Cl1         1.0830  -24.5320    0.4670 Cl        1 UNK         0.0000
      2 Cl2         1.7230  -27.2230   -4.1720 Cl        1 UNK         0.0000
      3 O1         10.3530  -24.6120    1.3980 O.3       1 UNK         0.0000
      4 O2          8.6220  -23.1060   -0.1140 O.3       1 UNK         0.0000
      5 O3          4.5530  -27.3470   -3.3360 O.3       1 UNK         0.0000
      6 N1          9.8280  -28.2650   -0.7320 N.3       1 UNK         0.0000
      7 N2          7.0740  -28.7040   -0.1560 N.3       1 UNK         0.0000
      8 N3          4.0100  -24.9530    0.7790 N.pl3     1 UNK         0.0000
      9 N4          6.7060  -27.1730    3.0370 N.ar      1 UNK         0.0000
     10 N5          1.9890  -27.3380    2.4960 N.1       1 UNK         0.0000
     11 C1          8.8020  -27.3270   -1.2100 C.3       1 UNK         0.0000
     12 C2          9.4160  -28.8900    0.5330 C.3       1 UNK         0.0000
     13 C3          7.4860  -28.0780   -1.4210 C.3       1 UNK         0.0000
     14 C4          8.1000  -29.6410    0.3230 C.3       1 UNK         0.0000
     15 C5         11.1280  -27.5960   -0.5900 C.3       1 UNK         0.0000
     16 C6         10.9120  -26.0900   -0.4310 C.3       1 UNK         0.0000
     17 C7          5.7740  -29.3720   -0.2970 C.3       1 UNK         0.0000
     18 C8         11.2200  -25.6790    1.0100 C.3       1 UNK         0.0000
     19 C9          9.0210  -24.8800    1.4330 C.ar      1 UNK         0.0000
     20 C10         8.1380  -24.1120    0.6620 C.ar      1 UNK         0.0000
     21 C11         6.2950  -25.4030    1.4830 C.ar      1 UNK         0.0000
     22 C12         8.5540  -25.9040    2.2270 C.ar      1 UNK         0.0000
     23 C13         7.1800  -26.1830    2.2650 C.ar      1 UNK         0.0000
     24 C14         6.7970  -24.3650    0.6830 C.ar      1 UNK         0.0000
     25 C15         4.9100  -25.6870    1.5240 C.ar      1 UNK         0.0000
     26 C16         4.4820  -26.7390    2.3480 C.ar      1 UNK         0.0000
     27 C17         5.4310  -27.4610    3.0900 C.ar      1 UNK         0.0000
     28 C18         3.4710  -25.4910   -0.3940 C.ar      1 UNK         0.0000
     29 C19         4.2900  -26.1600   -1.2920 C.ar      1 UNK         0.0000
     30 C20         8.5740  -23.2990   -1.5300 C.3       1 UNK         0.0000
     31 C21         2.1110  -25.3620   -0.6590 C.ar      1 UNK         0.0000
     32 C22         3.7530  -26.6920   -2.4540 C.ar      1 UNK         0.0000
     33 C23         3.0920  -27.0740    2.4310 C.1       1 UNK         0.0000
     34 C24         1.5800  -25.8890   -1.8200 C.ar      1 UNK         0.0000
     35 C25         2.3970  -26.5560   -2.7160 C.ar      1 UNK         0.0000
     36 C26         5.3980  -26.5450   -4.1650 C.3       1 UNK         0.0000
     37 H1          8.6580  -26.5380   -0.4710 H         1 UNK         0.0000
     38 H2          9.1250  -26.8860   -2.1540 H         1 UNK         0.0000
     39 H3         10.1860  -29.5890    0.8590 H         1 UNK         0.0000
     40 H4          9.2780  -28.1200    1.2910 H         1 UNK         0.0000
     41 H5          7.6240  -28.8480   -2.1790 H         1 UNK         0.0000
     42 H6          6.7160  -27.3790   -1.7470 H         1 UNK         0.0000
     43 H7          8.2440  -30.4300   -0.4160 H         1 UNK         0.0000
     44 H8          7.7790  -30.0820    1.2660 H         1 UNK         0.0000
     45 H9         11.7310  -27.7840   -1.4770 H         1 UNK         0.0000
     46 H10        11.6430  -27.9830    0.2890 H         1 UNK         0.0000
     47 H11         9.8760  -25.8440   -0.6650 H         1 UNK         0.0000
     48 H12        11.5750  -25.5530   -1.1110 H         1 UNK         0.0000
     49 H13         5.0100  -28.7940    0.2200 H         1 UNK         0.0000
     50 H14         5.5180  -29.4490   -1.3540 H         1 UNK         0.0000
     51 H15         5.8310  -30.3710    0.1370 H         1 UNK         0.0000
     52 H16        12.2560  -25.3480    1.0790 H         1 UNK         0.0000
     53 H17        11.0660  -26.5310    1.6720 H         1 UNK         0.0000
     54 H18         9.2440  -26.4890    2.8160 H         1 UNK         0.0000
     55 H19         6.1230  -23.7680    0.0860 H         1 UNK         0.0000
     56 H20         3.7500  -24.0640    1.0680 H         1 UNK         0.0000
     57 H21         5.1000  -28.2700    3.7230 H         1 UNK         0.0000
     58 H22         5.3450  -26.2650   -1.0870 H         1 UNK         0.0000
     59 H23         7.5510  -23.1690   -1.8800 H         1 UNK         0.0000
     60 H24         9.2210  -22.5700   -2.0170 H         1 UNK         0.0000
     61 H25         8.9150  -24.3060   -1.7700 H         1 UNK         0.0000
     62 H26         0.5240  -25.7850   -2.0260 H         1 UNK         0.0000
     63 H27         4.8710  -26.2930   -5.0840 H         1 UNK         0.0000
     64 H28         5.6640  -25.6310   -3.6350 H         1 UNK         0.0000
     65 H29         6.3040  -27.1020   -4.4060 H         1 UNK         0.0000
@<TRIPOS>BOND
     1    1   31 1
     2    2   35 1
     3    3   18 1
     4    3   19 1
     5    4   20 1
     6    4   30 1
     7    5   32 1
     8    5   36 1
     9    6   11 1
    10    6   12 1
    11    6   15 1
    12    7   13 1
    13    7   14 1
    14    7   17 1
    15    8   25 1
    16    8   28 1
    17    8   56 1
    18    9   23 ar
    19    9   27 ar
    20   10   33 3
    21   11   13 1
    22   11   37 1
    23   11   38 1
    24   12   14 1
    25   12   39 1
    26   12   40 1
    27   13   41 1
    28   13   42 1
    29   14   43 1
    30   14   44 1
    31   15   16 1
    32   15   45 1
    33   15   46 1
    34   16   18 1
    35   16   47 1
    36   16   48 1
    37   17   49 1
    38   17   50 1
    39   17   51 1
    40   18   52 1
    41   18   53 1
    42   19   20 ar
    43   19   22 ar
    44   20   24 ar
    45   21   23 ar
    46   21   24 ar
    47   21   25 ar
    48   22   23 ar
    49   22   54 1
    50   24   55 1
    51   25   26 ar
    52   26   27 ar
    53   26   33 1
    54   27   57 1
    55   28   29 ar
    56   28   31 ar
    57   29   32 ar
    58   29   58 1
    59   30   59 1
    60   30   60 1
    61   30   61 1
    62   31   34 ar
    63   32   35 ar
    64   34   35 ar
    65   34   62 1
    66   36   63 1
    67   36   64 1
    68   36   65 1
