@<TRIPOS>MOLECULE
5328940
   65    68     0     0     0
SMALL
NO_CHARGES

@<TRIPOS>ATOM
      1 Cl1         3.0220  -25.1460   -2.5320 Cl        1 UNK         0.0000
      2 Cl2         4.8430  -29.7900   -4.6020 Cl        1 UNK         0.0000
      3 O1          6.8910  -25.2800    3.4340 O.3       1 UNK         0.0000
      4 O2          4.7060  -25.8560    1.8710 O.3       1 UNK         0.0000
      5 O3          7.4460  -28.3960   -4.6060 O.3       1 UNK         0.0000
      6 N1          8.8210  -27.7190    1.7210 N.3       1 UNK         0.0000
      7 N2          9.7570  -27.5840   -0.9650 N.3       1 UNK         0.0000
      8 N3          5.8500  -24.2630   -2.7800 N.pl3     1 UNK         0.0000
      9 N4          9.1120  -23.4370   -0.3360 N.ar      1 UNK         0.0000
     10 N5          8.2270  -22.7250   -4.9490 N.1       1 UNK         0.0000
     11 C1          8.1000  -28.4050    0.6390 C.3       1 UNK         0.0000
     12 C2         10.2600  -27.6530    1.4300 C.3       1 UNK         0.0000
     13 C3          8.3180  -27.6510   -0.6750 C.3       1 UNK         0.0000
     14 C4         10.4780  -26.8990    0.1160 C.3       1 UNK         0.0000
     15 C5          8.5740  -28.3710    3.0130 C.3       1 UNK         0.0000
     16 C6          7.5090  -27.5900    3.7840 C.3       1 UNK         0.0000
     17 C7         10.0040  -26.9330   -2.2580 C.3       1 UNK         0.0000
     18 C8          7.9380  -26.1270    3.9100 C.3       1 UNK         0.0000
     19 C9          6.9060  -24.9610    2.1130 C.ar      1 UNK         0.0000
     20 C10         5.7920  -25.2550    1.3150 C.ar      1 UNK         0.0000
     21 C11         6.9060  -24.3240   -0.5890 C.ar      1 UNK         0.0000
     22 C12         8.0180  -24.3540    1.5730 C.ar      1 UNK         0.0000
     23 C13         8.0360  -24.0240    0.2090 C.ar      1 UNK         0.0000
     24 C14         5.7870  -24.9440   -0.0140 C.ar      1 UNK         0.0000
     25 C15         6.9290  -23.9900   -1.9630 C.ar      1 UNK         0.0000
     26 C16         8.0820  -23.3730   -2.4680 C.ar      1 UNK         0.0000
     27 C17         9.1580  -23.1120   -1.6030 C.ar      1 UNK         0.0000
     28 C18         5.6140  -25.5720   -3.2120 C.ar      1 UNK         0.0000
     29 C19         6.6600  -26.3420   -3.6990 C.ar      1 UNK         0.0000
     30 C20         4.5060  -27.2400    1.5710 C.3       1 UNK         0.0000
     31 C21         4.3310  -26.1050   -3.1490 C.ar      1 UNK         0.0000
     32 C22         6.4230  -27.6390   -4.1270 C.ar      1 UNK         0.0000
     33 C23         8.1630  -23.0110   -3.8520 C.1       1 UNK         0.0000
     34 C24         4.0970  -27.3970   -3.5800 C.ar      1 UNK         0.0000
     35 C25         5.1400  -28.1650   -4.0670 C.ar      1 UNK         0.0000
     36 C26         8.2140  -27.8450   -5.6780 C.3       1 UNK         0.0000
     37 H1          8.4760  -29.4240    0.5410 H         1 UNK         0.0000
     38 H2          7.0360  -28.4310    0.8710 H         1 UNK         0.0000
     39 H3         10.7700  -27.1290    2.2390 H         1 UNK         0.0000
     40 H4         10.6600  -28.6620    1.3400 H         1 UNK         0.0000
     41 H5          7.9180  -26.6410   -0.5850 H         1 UNK         0.0000
     42 H6          7.8080  -28.1740   -1.4840 H         1 UNK         0.0000
     43 H7         10.1030  -25.8800    0.2150 H         1 UNK         0.0000
     44 H8         11.5430  -26.8720   -0.1150 H         1 UNK         0.0000
     45 H9          9.4980  -28.3920    3.5910 H         1 UNK         0.0000
     46 H10         8.2270  -29.3900    2.8460 H         1 UNK         0.0000
     47 H11         7.3900  -28.0210    4.7780 H         1 UNK         0.0000
     48 H12         6.5590  -27.6450    3.2500 H         1 UNK         0.0000
     49 H13         9.6380  -27.5710   -3.0620 H         1 UNK         0.0000
     50 H14         9.4830  -25.9760   -2.2890 H         1 UNK         0.0000
     51 H15        11.0750  -26.7680   -2.3830 H         1 UNK         0.0000
     52 H16         8.8380  -25.9610    3.3190 H         1 UNK         0.0000
     53 H17         8.1430  -25.8980    4.9560 H         1 UNK         0.0000
     54 H18         8.8710  -24.1320    2.1960 H         1 UNK         0.0000
     55 H19         4.9240  -25.1740   -0.6210 H         1 UNK         0.0000
     56 H20         5.2560  -23.5470   -3.0550 H         1 UNK         0.0000
     57 H21        10.0450  -22.6370   -1.9930 H         1 UNK         0.0000
     58 H22         7.6580  -25.9320   -3.7460 H         1 UNK         0.0000
     59 H23         3.6990  -27.6330    2.1880 H         1 UNK         0.0000
     60 H24         4.2440  -27.3480    0.5180 H         1 UNK         0.0000
     61 H25         5.4240  -27.7910    1.7770 H         1 UNK         0.0000
     62 H26         3.0990  -27.8090   -3.5340 H         1 UNK         0.0000
     63 H27         8.7570  -28.6430   -6.1830 H         1 UNK         0.0000
     64 H28         7.5480  -27.3520   -6.3860 H         1 UNK         0.0000
     65 H29         8.9240  -27.1180   -5.2790 H         1 UNK         0.0000
@<TRIPOS>BOND
     1    1   31 1
     2    2   35 1
     3    3   18 1
     4    3   19 1
     5    4   20 1
     6    4   30 1
     7    5   32 1
     8    5   36 1
     9    6   11 1
    10    6   12 1
    11    6   15 1
    12    7   13 1
    13    7   14 1
    14    7   17 1
    15    8   25 1
    16    8   28 1
    17    8   56 1
    18    9   23 ar
    19    9   27 ar
    20   10   33 3
    21   11   13 1
    22   11   37 1
    23   11   38 1
    24   12   14 1
    25   12   39 1
    26   12   40 1
    27   13   41 1
    28   13   42 1
    29   14   43 1
    30   14   44 1
    31   15   16 1
    32   15   45 1
    33   15   46 1
    34   16   18 1
    35   16   47 1
    36   16   48 1
    37   17   49 1
    38   17   50 1
    39   17   51 1
    40   18   52 1
    41   18   53 1
    42   19   20 ar
    43   19   22 ar
    44   20   24 ar
    45   21   23 ar
    46   21   24 ar
    47   21   25 ar
    48   22   23 ar
    49   22   54 1
    50   24   55 1
    51   25   26 ar
    52   26   27 ar
    53   26   33 1
    54   27   57 1
    55   28   29 ar
    56   28   31 ar
    57   29   32 ar
    58   29   58 1
    59   30   59 1
    60   30   60 1
    61   30   61 1
    62   31   34 ar
    63   32   35 ar
    64   34   35 ar
    65   34   62 1
    66   36   63 1
    67   36   64 1
    68   36   65 1
