@<TRIPOS>MOLECULE
5328940
   65    68     0     0     0
SMALL
NO_CHARGES

@<TRIPOS>ATOM
      1 Cl1         2.8980  -22.7210   -1.8770 Cl        1 UNK         0.0000
      2 Cl2         1.5790  -27.7690   -0.4810 Cl        1 UNK         0.0000
      3 O1          8.0240  -24.3450   -6.5610 O.3       1 UNK         0.0000
      4 O2          5.4430  -23.8230   -5.7780 O.3       1 UNK         0.0000
      5 O3          4.3650  -27.8850    0.4920 O.3       1 UNK         0.0000
      6 N1          7.3750  -27.9170   -5.0050 N.3       1 UNK         0.0000
      7 N2          4.9870  -29.0190   -3.9150 N.3       1 UNK         0.0000
      8 N3          5.5600  -23.4140   -0.7480 N.pl3     1 UNK         0.0000
      9 N4          9.4380  -24.1990   -2.0310 N.ar      1 UNK         0.0000
     10 N5          7.4950  -23.4960    2.2470 N.1       1 UNK         0.0000
     11 C1          7.3490  -29.2960   -4.4950 C.3       1 UNK         0.0000
     12 C2          6.0600  -27.5310   -5.5360 C.3       1 UNK         0.0000
     13 C3          6.3020  -29.4070   -3.3850 C.3       1 UNK         0.0000
     14 C4          5.0130  -27.6420   -4.4260 C.3       1 UNK         0.0000
     15 C5          8.4230  -27.7520   -6.0210 C.3       1 UNK         0.0000
     16 C6          7.9780  -26.7110   -7.0500 C.3       1 UNK         0.0000
     17 C7          3.9390  -29.1860   -2.9000 C.3       1 UNK         0.0000
     18 C8          8.8450  -25.4590   -6.9170 C.3       1 UNK         0.0000
     19 C9          7.7420  -24.1820   -5.2420 C.ar      1 UNK         0.0000
     20 C10         6.4250  -23.9160   -4.8420 C.ar      1 UNK         0.0000
     21 C11         7.1320  -23.8440   -2.5540 C.ar      1 UNK         0.0000
     22 C12         8.7530  -24.2810   -4.3130 C.ar      1 UNK         0.0000
     23 C13         8.4640  -24.1130   -2.9500 C.ar      1 UNK         0.0000
     24 C14         6.1200  -23.7490   -3.5220 C.ar      1 UNK         0.0000
     25 C15         6.8440  -23.6760   -1.1800 C.ar      1 UNK         0.0000
     26 C16         7.9070  -23.7850   -0.2710 C.ar      1 UNK         0.0000
     27 C17         9.1990  -24.0530   -0.7520 C.ar      1 UNK         0.0000
     28 C18         4.6190  -24.4460   -0.6830 C.ar      1 UNK         0.0000
     29 C19         4.9640  -25.6660   -0.1200 C.ar      1 UNK         0.0000
     30 C20         4.3960  -22.8820   -5.5280 C.3       1 UNK         0.0000
     31 C21         3.3350  -24.2500   -1.1790 C.ar      1 UNK         0.0000
     32 C22         4.0300  -26.6890   -0.0580 C.ar      1 UNK         0.0000
     33 C23         7.6770  -23.6240    1.1330 C.1       1 UNK         0.0000
     34 C24         2.4060  -25.2720   -1.1200 C.ar      1 UNK         0.0000
     35 C25         2.7510  -26.4890   -0.5590 C.ar      1 UNK         0.0000
     36 C26         4.4380  -27.9460    1.9190 C.3       1 UNK         0.0000
     37 H1          7.0950  -29.9790   -5.3060 H         1 UNK         0.0000
     38 H2          8.3310  -29.5540   -4.0960 H         1 UNK         0.0000
     39 H3          6.1030  -26.5030   -5.8950 H         1 UNK         0.0000
     40 H4          5.7910  -28.1930   -6.3570 H         1 UNK         0.0000
     41 H5          6.5720  -28.7440   -2.5630 H         1 UNK         0.0000
     42 H6          6.2600  -30.4340   -3.0250 H         1 UNK         0.0000
     43 H7          5.2670  -26.9590   -3.6150 H         1 UNK         0.0000
     44 H8          4.0330  -27.3830   -4.8250 H         1 UNK         0.0000
     45 H9          8.5970  -28.7050   -6.5200 H         1 UNK         0.0000
     46 H10         9.3440  -27.4190   -5.5430 H         1 UNK         0.0000
     47 H11         6.9340  -26.4510   -6.8750 H         1 UNK         0.0000
     48 H12         8.0860  -27.1230   -8.0540 H         1 UNK         0.0000
     49 H13         4.3930  -29.4810   -1.9550 H         1 UNK         0.0000
     50 H14         3.4080  -28.2430   -2.7680 H         1 UNK         0.0000
     51 H15         3.2390  -29.9560   -3.2240 H         1 UNK         0.0000
     52 H16         9.3390  -25.2570   -7.8670 H         1 UNK         0.0000
     53 H17         9.5970  -25.6170   -6.1430 H         1 UNK         0.0000
     54 H18         9.7640  -24.4860   -4.6320 H         1 UNK         0.0000
     55 H19         5.1020  -23.5450   -3.2220 H         1 UNK         0.0000
     56 H20         5.3100  -22.5130   -0.4880 H         1 UNK         0.0000
     57 H21        10.0150  -24.1370   -0.0520 H         1 UNK         0.0000
     58 H22         5.9600  -25.8210    0.2690 H         1 UNK         0.0000
     59 H23         4.8100  -21.9980   -5.0420 H         1 UNK         0.0000
     60 H24         3.9340  -22.5950   -6.4720 H         1 UNK         0.0000
     61 H25         3.6470  -23.3360   -4.8790 H         1 UNK         0.0000
     62 H26         1.4100  -25.1190   -1.5080 H         1 UNK         0.0000
     63 H27         5.4820  -27.9160    2.2300 H         1 UNK         0.0000
     64 H28         3.9060  -27.0960    2.3460 H         1 UNK         0.0000
     65 H29         3.9810  -28.8730    2.2660 H         1 UNK         0.0000
@<TRIPOS>BOND
     1    1   31 1
     2    2   35 1
     3    3   18 1
     4    3   19 1
     5    4   20 1
     6    4   30 1
     7    5   32 1
     8    5   36 1
     9    6   11 1
    10    6   12 1
    11    6   15 1
    12    7   13 1
    13    7   14 1
    14    7   17 1
    15    8   25 1
    16    8   28 1
    17    8   56 1
    18    9   23 ar
    19    9   27 ar
    20   10   33 3
    21   11   13 1
    22   11   37 1
    23   11   38 1
    24   12   14 1
    25   12   39 1
    26   12   40 1
    27   13   41 1
    28   13   42 1
    29   14   43 1
    30   14   44 1
    31   15   16 1
    32   15   45 1
    33   15   46 1
    34   16   18 1
    35   16   47 1
    36   16   48 1
    37   17   49 1
    38   17   50 1
    39   17   51 1
    40   18   52 1
    41   18   53 1
    42   19   20 ar
    43   19   22 ar
    44   20   24 ar
    45   21   23 ar
    46   21   24 ar
    47   21   25 ar
    48   22   23 ar
    49   22   54 1
    50   24   55 1
    51   25   26 ar
    52   26   27 ar
    53   26   33 1
    54   27   57 1
    55   28   29 ar
    56   28   31 ar
    57   29   32 ar
    58   29   58 1
    59   30   59 1
    60   30   60 1
    61   30   61 1
    62   31   34 ar
    63   32   35 ar
    64   34   35 ar
    65   34   62 1
    66   36   63 1
    67   36   64 1
    68   36   65 1
