@<TRIPOS>MOLECULE
25174101
   55    58     0     0     0
SMALL
NO_CHARGES

@<TRIPOS>ATOM
      1 O1          7.3830   -6.0310   -9.3300 O.2       1 UNK         0.0000
      2 N1          9.0760   -5.0920  -11.9210 N.pl3     1 UNK         0.0000
      3 N2         10.4680   -4.9540  -11.9990 N.2       1 UNK         0.0000
      4 N3          7.3110   -4.1430  -10.4980 N.am      1 UNK         0.0000
      5 N4          5.4630   -4.9150   -9.2990 N.am      1 UNK         0.0000
      6 N5          7.5880   -9.4760  -13.2920 N.pl3     1 UNK         0.0000
      7 C1         12.2700   -3.6790  -10.8100 C.3       1 UNK         0.0000
      8 C2         10.8510   -4.1120  -11.0730 C.2       1 UNK         0.0000
      9 C3         12.2660   -2.3320  -10.0860 C.3       1 UNK         0.0000
     10 C4         12.9710   -4.7240   -9.9410 C.3       1 UNK         0.0000
     11 C5         13.0150   -3.5410  -12.1400 C.3       1 UNK         0.0000
     12 C6          9.7210   -3.6770  -10.3750 C.2       1 UNK         0.0000
     13 C7          8.6350   -4.2980  -10.9090 C.2       1 UNK         0.0000
     14 C8          8.2800   -5.9050  -12.7410 C.ar      1 UNK         0.0000
     15 C9          8.3340   -7.2850  -12.6120 C.ar      1 UNK         0.0000
     16 C10         7.4420   -5.3280  -13.6870 C.ar      1 UNK         0.0000
     17 C11         6.7420   -5.0650   -9.6960 C.2       1 UNK         0.0000
     18 C12         4.9090   -5.8040   -8.3760 C.ar      1 UNK         0.0000
     19 C13         4.9330   -5.5070   -6.9970 C.ar      1 UNK         0.0000
     20 C14         7.5410   -8.0850  -13.4220 C.ar      1 UNK         0.0000
     21 C15         4.3650   -6.4250   -6.0790 C.ar      1 UNK         0.0000
     22 C16         6.6570   -6.1280  -14.4950 C.ar      1 UNK         0.0000
     23 C17         6.7030   -7.5030  -14.3670 C.ar      1 UNK         0.0000
     24 C18         4.3340   -6.9810   -8.8050 C.ar      1 UNK         0.0000
     25 C19         5.5080   -4.3210   -6.5180 C.ar      1 UNK         0.0000
     26 C20         3.7890   -7.6150   -6.5570 C.ar      1 UNK         0.0000
     27 C21         3.7800   -7.8760   -7.8930 C.ar      1 UNK         0.0000
     28 C22         4.3890   -6.1290   -4.7060 C.ar      1 UNK         0.0000
     29 C23         5.5140   -4.0650   -5.1800 C.ar      1 UNK         0.0000
     30 C24         4.9560   -4.9680   -4.2770 C.ar      1 UNK         0.0000
     31 H1         11.2380   -2.0000   -9.9410 H         1 UNK         0.0000
     32 H2         12.7530   -2.4390   -9.1160 H         1 UNK         0.0000
     33 H3         12.8050   -1.5960  -10.6820 H         1 UNK         0.0000
     34 H4         12.2630   -5.1300   -9.2180 H         1 UNK         0.0000
     35 H5         13.3470   -5.5290  -10.5720 H         1 UNK         0.0000
     36 H6         13.8030   -4.2590   -9.4130 H         1 UNK         0.0000
     37 H7         14.0630   -3.3090  -11.9480 H         1 UNK         0.0000
     38 H8         12.9470   -4.4770  -12.6940 H         1 UNK         0.0000
     39 H9         12.5670   -2.7390  -12.7260 H         1 UNK         0.0000
     40 H10         9.7130   -2.9740   -9.5540 H         1 UNK         0.0000
     41 H11         6.8000   -3.3710  -10.7890 H         1 UNK         0.0000
     42 H12         8.9880   -7.7350  -11.8800 H         1 UNK         0.0000
     43 H13         7.4040   -4.2540  -13.7900 H         1 UNK         0.0000
     44 H14         4.9270   -4.1890   -9.6540 H         1 UNK         0.0000
     45 H15         6.0060   -5.6780  -15.2300 H         1 UNK         0.0000
     46 H16         6.0890   -8.1250  -15.0000 H         1 UNK         0.0000
     47 H17         4.3140   -7.2120   -9.8600 H         1 UNK         0.0000
     48 H18         5.9440   -3.6120   -7.2070 H         1 UNK         0.0000
     49 H19         3.3580   -8.3220   -5.8650 H         1 UNK         0.0000
     50 H20         3.3360   -8.7920   -8.2520 H         1 UNK         0.0000
     51 H21         3.9600   -6.8180   -3.9940 H         1 UNK         0.0000
     52 H22         5.9570   -3.1510   -4.8150 H         1 UNK         0.0000
     53 H23         4.9740   -4.7420   -3.2210 H         1 UNK         0.0000
     54 H24         6.7740   -9.9970  -13.3710 H         1 UNK         0.0000
     55 H25         8.4350   -9.9180  -13.1250 H         1 UNK         0.0000
@<TRIPOS>BOND
     1    1   17 2
     2    2    3 1
     3    2   13 1
     4    2   14 1
     5    3    8 2
     6    4   13 1
     7    4   17 am
     8    4   41 1
     9    5   17 am
    10    5   18 1
    11    5   44 1
    12    6   20 1
    13    6   54 1
    14    6   55 1
    15    7    8 1
    16    7    9 1
    17    7   10 1
    18    7   11 1
    19    8   12 1
    20    9   31 1
    21    9   32 1
    22    9   33 1
    23   10   34 1
    24   10   35 1
    25   10   36 1
    26   11   37 1
    27   11   38 1
    28   11   39 1
    29   12   13 2
    30   12   40 1
    31   14   15 ar
    32   14   16 ar
    33   15   20 ar
    34   15   42 1
    35   16   22 ar
    36   16   43 1
    37   18   19 ar
    38   18   24 ar
    39   19   21 ar
    40   19   25 ar
    41   20   23 ar
    42   21   26 ar
    43   21   28 ar
    44   22   23 ar
    45   22   45 1
    46   23   46 1
    47   24   27 ar
    48   24   47 1
    49   25   29 ar
    50   25   48 1
    51   26   27 ar
    52   26   49 1
    53   27   50 1
    54   28   30 ar
    55   28   51 1
    56   29   30 ar
    57   29   52 1
    58   30   53 1
