@<TRIPOS>MOLECULE
25174101
   55    58     0     0     0
SMALL
NO_CHARGES

@<TRIPOS>ATOM
      1 O1         10.4690   -2.9150  -14.0830 O.2       1 UNK         0.0000
      2 N1         10.4240   -2.7030  -10.5920 N.pl3     1 UNK         0.0000
      3 N2         10.4000   -3.8920   -9.8530 N.2       1 UNK         0.0000
      4 N3          9.2330   -1.8600  -12.5690 N.am      1 UNK         0.0000
      5 N4          9.4720   -1.0430  -14.7430 N.am      1 UNK         0.0000
      6 N5         11.1410    1.5370   -8.3960 N.pl3     1 UNK         0.0000
      7 C1          9.1790   -6.0810   -9.9090 C.3       1 UNK         0.0000
      8 C2          9.5200   -4.6960  -10.3940 C.2       1 UNK         0.0000
      9 C3         10.3590   -6.6490   -9.1170 C.3       1 UNK         0.0000
     10 C4          7.9440   -6.0180   -9.0090 C.3       1 UNK         0.0000
     11 C5          8.8880   -6.9850  -11.1090 C.3       1 UNK         0.0000
     12 C6          8.9450   -4.0500  -11.4920 C.2       1 UNK         0.0000
     13 C7          9.5210   -2.8220  -11.6020 C.2       1 UNK         0.0000
     14 C8         11.2350   -1.5880  -10.3350 C.ar      1 UNK         0.0000
     15 C9         10.7830   -0.5780   -9.4980 C.ar      1 UNK         0.0000
     16 C10        12.4890   -1.4900  -10.9250 C.ar      1 UNK         0.0000
     17 C11         9.7510   -1.9730  -13.8090 C.2       1 UNK         0.0000
     18 C12         9.9110   -1.2200  -16.0570 C.ar      1 UNK         0.0000
     19 C13         9.0490   -1.7730  -17.0280 C.ar      1 UNK         0.0000
     20 C14        11.5900    0.5200   -9.2430 C.ar      1 UNK         0.0000
     21 C15         9.5160   -1.9430  -18.3550 C.ar      1 UNK         0.0000
     22 C16        13.2890   -0.3920  -10.6730 C.ar      1 UNK         0.0000
     23 C17        12.8450    0.6130   -9.8350 C.ar      1 UNK         0.0000
     24 C18        11.1900   -0.8560  -16.4170 C.ar      1 UNK         0.0000
     25 C19         7.7390   -2.1570  -16.7040 C.ar      1 UNK         0.0000
     26 C20        10.8280   -1.5590  -18.6800 C.ar      1 UNK         0.0000
     27 C21        11.6380   -1.0290  -17.7240 C.ar      1 UNK         0.0000
     28 C22         8.6570   -2.4930  -19.3210 C.ar      1 UNK         0.0000
     29 C23         6.9330   -2.6860  -17.6660 C.ar      1 UNK         0.0000
     30 C24         7.3920   -2.8550  -18.9710 C.ar      1 UNK         0.0000
     31 H1         10.7570   -7.5210   -9.6360 H         1 UNK         0.0000
     32 H2         11.1380   -5.8900   -9.0320 H         1 UNK         0.0000
     33 H3         10.0240   -6.9380   -8.1220 H         1 UNK         0.0000
     34 H4          8.1160   -6.6150   -8.1130 H         1 UNK         0.0000
     35 H5          7.7530   -4.9830   -8.7240 H         1 UNK         0.0000
     36 H6          7.0810   -6.4100   -9.5470 H         1 UNK         0.0000
     37 H7          9.5710   -7.8350  -11.0990 H         1 UNK         0.0000
     38 H8          7.8600   -7.3450  -11.0530 H         1 UNK         0.0000
     39 H9          9.0250   -6.4210  -12.0310 H         1 UNK         0.0000
     40 H10         8.1810   -4.4550  -12.1390 H         1 UNK         0.0000
     41 H11         8.6590   -1.1080  -12.3510 H         1 UNK         0.0000
     42 H12         9.8060   -0.6510   -9.0420 H         1 UNK         0.0000
     43 H13        12.8390   -2.2740  -11.5800 H         1 UNK         0.0000
     44 H14         8.9670   -0.2510  -14.5040 H         1 UNK         0.0000
     45 H15        14.2640   -0.3180  -11.1320 H         1 UNK         0.0000
     46 H16        13.4720    1.4700   -9.6400 H         1 UNK         0.0000
     47 H17        11.8530   -0.4330  -15.6770 H         1 UNK         0.0000
     48 H18         7.3700   -2.0310  -15.6960 H         1 UNK         0.0000
     49 H19        11.1940   -1.6890  -19.6880 H         1 UNK         0.0000
     50 H20        12.6450   -0.7370  -17.9820 H         1 UNK         0.0000
     51 H21         8.9980   -2.6290  -20.3370 H         1 UNK         0.0000
     52 H22         5.9260   -2.9800  -17.4140 H         1 UNK         0.0000
     53 H23         6.7340   -3.2780  -19.7160 H         1 UNK         0.0000
     54 H24        11.3300    1.4950   -7.4460 H         1 UNK         0.0000
     55 H25        10.6410    2.2850   -8.7590 H         1 UNK         0.0000
@<TRIPOS>BOND
     1    1   17 2
     2    2    3 1
     3    2   13 1
     4    2   14 1
     5    3    8 2
     6    4   13 1
     7    4   17 am
     8    4   41 1
     9    5   17 am
    10    5   18 1
    11    5   44 1
    12    6   20 1
    13    6   54 1
    14    6   55 1
    15    7    8 1
    16    7    9 1
    17    7   10 1
    18    7   11 1
    19    8   12 1
    20    9   31 1
    21    9   32 1
    22    9   33 1
    23   10   34 1
    24   10   35 1
    25   10   36 1
    26   11   37 1
    27   11   38 1
    28   11   39 1
    29   12   13 2
    30   12   40 1
    31   14   15 ar
    32   14   16 ar
    33   15   20 ar
    34   15   42 1
    35   16   22 ar
    36   16   43 1
    37   18   19 ar
    38   18   24 ar
    39   19   21 ar
    40   19   25 ar
    41   20   23 ar
    42   21   26 ar
    43   21   28 ar
    44   22   23 ar
    45   22   45 1
    46   23   46 1
    47   24   27 ar
    48   24   47 1
    49   25   29 ar
    50   25   48 1
    51   26   27 ar
    52   26   49 1
    53   27   50 1
    54   28   30 ar
    55   28   51 1
    56   29   30 ar
    57   29   52 1
    58   30   53 1
