@<TRIPOS>MOLECULE
25174101
   55    58     0     0     0
SMALL
NO_CHARGES

@<TRIPOS>ATOM
      1 O1          4.8640   -9.2640   -9.5380 O.2       1 UNK         0.0000
      2 N1          6.7930   -8.7730  -12.1680 N.pl3     1 UNK         0.0000
      3 N2          7.3410   -9.7990  -12.9460 N.2       1 UNK         0.0000
      4 N3          4.5260   -8.1650  -11.4380 N.am      1 UNK         0.0000
      5 N4          3.3900   -7.6030   -9.4770 N.am      1 UNK         0.0000
      6 N5          7.6820   -4.0590  -11.6240 N.pl3     1 UNK         0.0000
      7 C1          6.5210  -11.8060  -14.2070 C.3       1 UNK         0.0000
      8 C2          6.3680  -10.5790  -13.3460 C.2       1 UNK         0.0000
      9 C3          8.0080  -12.1060  -14.4060 C.3       1 UNK         0.0000
     10 C4          5.8480  -12.9970  -13.5230 C.3       1 UNK         0.0000
     11 C5          5.8640  -11.5600  -15.5670 C.3       1 UNK         0.0000
     12 C6          5.1660  -10.0840  -12.8330 C.2       1 UNK         0.0000
     13 C7          5.4470   -8.9650  -12.1130 C.2       1 UNK         0.0000
     14 C8          7.5050   -7.7330  -11.5530 C.ar      1 UNK         0.0000
     15 C9          7.2430   -6.4140  -11.8970 C.ar      1 UNK         0.0000
     16 C10         8.4770   -8.0220  -10.6040 C.ar      1 UNK         0.0000
     17 C11         4.2800   -8.3760  -10.1290 C.2       1 UNK         0.0000
     18 C12         3.2220   -7.7440   -8.0980 C.ar      1 UNK         0.0000
     19 C13         3.9820   -6.9610   -7.2040 C.ar      1 UNK         0.0000
     20 C14         7.9460   -5.3880  -11.2840 C.ar      1 UNK         0.0000
     21 C15         3.7950   -7.1210   -5.8090 C.ar      1 UNK         0.0000
     22 C16         9.1790   -6.9970   -9.9980 C.ar      1 UNK         0.0000
     23 C17         8.9180   -5.6830  -10.3340 C.ar      1 UNK         0.0000
     24 C18         2.3100   -8.6480   -7.5990 C.ar      1 UNK         0.0000
     25 C19         4.9210   -6.0290   -7.6700 C.ar      1 UNK         0.0000
     26 C20         2.8550   -8.0560   -5.3400 C.ar      1 UNK         0.0000
     27 C21         2.1350   -8.7970   -6.2260 C.ar      1 UNK         0.0000
     28 C22         4.5520   -6.3420   -4.9180 C.ar      1 UNK         0.0000
     29 C23         5.6380   -5.2890   -6.7790 C.ar      1 UNK         0.0000
     30 C24         5.4550   -5.4470   -5.4070 C.ar      1 UNK         0.0000
     31 H1          8.1360  -13.1610  -14.6490 H         1 UNK         0.0000
     32 H2          8.3960  -11.4950  -15.2230 H         1 UNK         0.0000
     33 H3          8.5520  -11.8750  -13.4910 H         1 UNK         0.0000
     34 H4          4.8930  -13.2030  -14.0090 H         1 UNK         0.0000
     35 H5          6.4920  -13.8730  -13.6000 H         1 UNK         0.0000
     36 H6          5.6770  -12.7630  -12.4720 H         1 UNK         0.0000
     37 H7          4.7800  -11.5320  -15.4470 H         1 UNK         0.0000
     38 H8          6.2080  -10.6080  -15.9710 H         1 UNK         0.0000
     39 H9          6.1320  -12.3640  -16.2510 H         1 UNK         0.0000
     40 H10         4.1860  -10.5140  -12.9850 H         1 UNK         0.0000
     41 H11         4.0610   -7.4560  -11.9100 H         1 UNK         0.0000
     42 H12         6.4910   -6.1880  -12.6380 H         1 UNK         0.0000
     43 H13         8.6840   -9.0480  -10.3400 H         1 UNK         0.0000
     44 H14         2.8660   -6.9500   -9.9650 H         1 UNK         0.0000
     45 H15         9.9340   -7.2240   -9.2600 H         1 UNK         0.0000
     46 H16         9.4680   -4.8850   -9.8590 H         1 UNK         0.0000
     47 H17         1.7260   -9.2500   -8.2800 H         1 UNK         0.0000
     48 H18         5.0740   -5.8960   -8.7310 H         1 UNK         0.0000
     49 H19         2.7080   -8.1870   -4.2780 H         1 UNK         0.0000
     50 H20         1.4150   -9.5130   -5.8570 H         1 UNK         0.0000
     51 H21         4.4200   -6.4520   -3.8520 H         1 UNK         0.0000
     52 H22         6.3590   -4.5720   -7.1410 H         1 UNK         0.0000
     53 H23         6.0360   -4.8490   -4.7200 H         1 UNK         0.0000
     54 H24         8.4070   -3.4150  -11.6620 H         1 UNK         0.0000
     55 H25         6.7740   -3.7800  -11.8220 H         1 UNK         0.0000
@<TRIPOS>BOND
     1    1   17 2
     2    2    3 1
     3    2   13 1
     4    2   14 1
     5    3    8 2
     6    4   13 1
     7    4   17 am
     8    4   41 1
     9    5   17 am
    10    5   18 1
    11    5   44 1
    12    6   20 1
    13    6   54 1
    14    6   55 1
    15    7    8 1
    16    7    9 1
    17    7   10 1
    18    7   11 1
    19    8   12 1
    20    9   31 1
    21    9   32 1
    22    9   33 1
    23   10   34 1
    24   10   35 1
    25   10   36 1
    26   11   37 1
    27   11   38 1
    28   11   39 1
    29   12   13 2
    30   12   40 1
    31   14   15 ar
    32   14   16 ar
    33   15   20 ar
    34   15   42 1
    35   16   22 ar
    36   16   43 1
    37   18   19 ar
    38   18   24 ar
    39   19   21 ar
    40   19   25 ar
    41   20   23 ar
    42   21   26 ar
    43   21   28 ar
    44   22   23 ar
    45   22   45 1
    46   23   46 1
    47   24   27 ar
    48   24   47 1
    49   25   29 ar
    50   25   48 1
    51   26   27 ar
    52   26   49 1
    53   27   50 1
    54   28   30 ar
    55   28   51 1
    56   29   30 ar
    57   29   52 1
    58   30   53 1
