@<TRIPOS>MOLECULE
25174101
   55    58     0     0     0
SMALL
NO_CHARGES

@<TRIPOS>ATOM
      1 O1          6.8380   -5.7610  -10.4230 O.2       1 UNK         0.0000
      2 N1          9.9850   -4.5300  -11.5410 N.pl3     1 UNK         0.0000
      3 N2         10.1990   -4.5150  -12.9250 N.2       1 UNK         0.0000
      4 N3          8.1000   -3.9690  -10.0670 N.am      1 UNK         0.0000
      5 N4          6.5610   -4.7210   -8.4810 N.am      1 UNK         0.0000
      6 N5         11.3660   -7.5530   -8.0390 N.pl3     1 UNK         0.0000
      7 C1          8.9050   -3.9310  -14.9920 C.3       1 UNK         0.0000
      8 C2          9.1040   -4.0960  -13.5080 C.2       1 UNK         0.0000
      9 C3          8.5580   -2.4740  -15.3010 C.3       1 UNK         0.0000
     10 C4         10.1900   -4.3170  -15.7260 C.3       1 UNK         0.0000
     11 C5          7.7620   -4.8370  -15.4560 C.3       1 UNK         0.0000
     12 C6          8.1500   -3.8340  -12.5200 C.2       1 UNK         0.0000
     13 C7          8.7140   -4.1020  -11.3120 C.2       1 UNK         0.0000
     14 C8         10.9150   -4.9170  -10.5660 C.ar      1 UNK         0.0000
     15 C9         10.6760   -6.0390   -9.7850 C.ar      1 UNK         0.0000
     16 C10        12.0740   -4.1750  -10.3770 C.ar      1 UNK         0.0000
     17 C11         7.1550   -4.8500   -9.6830 C.2       1 UNK         0.0000
     18 C12         5.6690   -5.6980   -8.0340 C.ar      1 UNK         0.0000
     19 C13         5.2970   -5.7540   -6.6740 C.ar      1 UNK         0.0000
     20 C14        11.6010   -6.4210   -8.8250 C.ar      1 UNK         0.0000
     21 C15         4.3900   -6.7540   -6.2440 C.ar      1 UNK         0.0000
     22 C16        12.9910   -4.5550   -9.4160 C.ar      1 UNK         0.0000
     23 C17        12.7600   -5.6740   -8.6400 C.ar      1 UNK         0.0000
     24 C18         5.1430   -6.6150   -8.9180 C.ar      1 UNK         0.0000
     25 C19         5.8080   -4.8400   -5.7410 C.ar      1 UNK         0.0000
     26 C20         3.8770   -7.6720   -7.1770 C.ar      1 UNK         0.0000
     27 C21         4.2540   -7.5940   -8.4830 C.ar      1 UNK         0.0000
     28 C22         4.0200   -6.8100   -4.8890 C.ar      1 UNK         0.0000
     29 C23         5.4270   -4.9230   -4.4360 C.ar      1 UNK         0.0000
     30 C24         4.5360   -5.9060   -4.0120 C.ar      1 UNK         0.0000
     31 H1          9.1670   -1.8160  -14.6810 H         1 UNK         0.0000
     32 H2          8.7570   -2.2680  -16.3540 H         1 UNK         0.0000
     33 H3          7.5030   -2.2980  -15.0910 H         1 UNK         0.0000
     34 H4         10.9350   -4.6530  -15.0030 H         1 UNK         0.0000
     35 H5          9.9800   -5.1200  -16.4320 H         1 UNK         0.0000
     36 H6         10.5740   -3.4510  -16.2650 H         1 UNK         0.0000
     37 H7          7.9050   -5.8390  -15.0510 H         1 UNK         0.0000
     38 H8          6.8130   -4.4350  -15.1020 H         1 UNK         0.0000
     39 H9          7.7540   -4.8840  -16.5450 H         1 UNK         0.0000
     40 H10         7.1440   -3.4790  -12.6880 H         1 UNK         0.0000
     41 H11         8.3530   -3.2420   -9.4760 H         1 UNK         0.0000
     42 H12         9.7740   -6.6140   -9.9280 H         1 UNK         0.0000
     43 H13        12.2580   -3.2990  -10.9820 H         1 UNK         0.0000
     44 H14         6.7540   -3.9500   -7.9250 H         1 UNK         0.0000
     45 H15        13.8920   -3.9770   -9.2710 H         1 UNK         0.0000
     46 H16        13.4780   -5.9690   -7.8900 H         1 UNK         0.0000
     47 H17         5.4260   -6.5760   -9.9600 H         1 UNK         0.0000
     48 H18         6.5000   -4.0720   -6.0560 H         1 UNK         0.0000
     49 H19         3.1890   -8.4400   -6.8570 H         1 UNK         0.0000
     50 H20         3.8560   -8.3030   -9.1940 H         1 UNK         0.0000
     51 H21         3.3290   -7.5660   -4.5460 H         1 UNK         0.0000
     52 H22         5.8210   -4.2170   -3.7210 H         1 UNK         0.0000
     53 H23         4.2490   -5.9510   -2.9710 H         1 UNK         0.0000
     54 H24        11.6940   -8.4190   -8.3270 H         1 UNK         0.0000
     55 H25        10.8770   -7.4710   -7.2060 H         1 UNK         0.0000
@<TRIPOS>BOND
     1    1   17 2
     2    2    3 1
     3    2   13 1
     4    2   14 1
     5    3    8 2
     6    4   13 1
     7    4   17 am
     8    4   41 1
     9    5   17 am
    10    5   18 1
    11    5   44 1
    12    6   20 1
    13    6   54 1
    14    6   55 1
    15    7    8 1
    16    7    9 1
    17    7   10 1
    18    7   11 1
    19    8   12 1
    20    9   31 1
    21    9   32 1
    22    9   33 1
    23   10   34 1
    24   10   35 1
    25   10   36 1
    26   11   37 1
    27   11   38 1
    28   11   39 1
    29   12   13 2
    30   12   40 1
    31   14   15 ar
    32   14   16 ar
    33   15   20 ar
    34   15   42 1
    35   16   22 ar
    36   16   43 1
    37   18   19 ar
    38   18   24 ar
    39   19   21 ar
    40   19   25 ar
    41   20   23 ar
    42   21   26 ar
    43   21   28 ar
    44   22   23 ar
    45   22   45 1
    46   23   46 1
    47   24   27 ar
    48   24   47 1
    49   25   29 ar
    50   25   48 1
    51   26   27 ar
    52   26   49 1
    53   27   50 1
    54   28   30 ar
    55   28   51 1
    56   29   30 ar
    57   29   52 1
    58   30   53 1
