@<TRIPOS>MOLECULE
24821094
   57    61     0     0     0
SMALL
NO_CHARGES

@<TRIPOS>ATOM
      1 O1          6.3870   -8.5900  -17.5290 O.2       1 UNK         0.0000
      2 O2          4.4390   -5.0780   -4.8930 O.3       1 UNK         0.0000
      3 N1          6.0410   -8.0420  -15.4040 N.am      1 UNK         0.0000
      4 N2          6.5120   -6.0200  -12.3090 N.pl3     1 UNK         0.0000
      5 N3          5.6780   -5.9520  -11.1870 N.2       1 UNK         0.0000
      6 N4          8.9590   -5.6850  -12.5830 N.ar      1 UNK         0.0000
      7 N5         10.1000   -5.1750  -10.6360 N.ar      1 UNK         0.0000
      8 N6          9.0290   -4.9850   -8.5440 N.pl3     1 UNK         0.0000
      9 C1          6.0710   -6.3210  -13.6730 C.3       1 UNK         0.0000
     10 C2          4.5410   -6.3270  -13.7270 C.3       1 UNK         0.0000
     11 C3          6.5980   -7.6990  -14.0880 C.3       1 UNK         0.0000
     12 C4          4.0800   -6.6090  -15.1580 C.3       1 UNK         0.0000
     13 C5          4.5850   -7.9850  -15.5910 C.3       1 UNK         0.0000
     14 C6          7.7950   -5.7560  -11.9360 C.ar      1 UNK         0.0000
     15 C7          7.7800   -5.5220  -10.5490 C.ar      1 UNK         0.0000
     16 C8          6.8510   -8.3960  -16.4220 C.2       1 UNK         0.0000
     17 C9          6.3880   -5.6660  -10.1210 C.2       1 UNK         0.0000
     18 C10         8.9910   -5.2240   -9.9050 C.ar      1 UNK         0.0000
     19 C11         5.8740   -5.5110   -8.7400 C.ar      1 UNK         0.0000
     20 C12         8.2960   -8.5470  -16.1920 C.2       1 UNK         0.0000
     21 C13        10.0690   -5.4020  -11.9370 C.ar      1 UNK         0.0000
     22 C14         5.6600   -4.2370   -8.2130 C.ar      1 UNK         0.0000
     23 C15         5.5970   -6.6380   -7.9660 C.ar      1 UNK         0.0000
     24 C16         8.8790   -9.7270  -16.3800 C.2       1 UNK         0.0000
     25 C17         5.1810   -4.0960   -6.9280 C.ar      1 UNK         0.0000
     26 C18         5.1230   -6.4900   -6.6800 C.ar      1 UNK         0.0000
     27 C19         4.9110   -5.2200   -6.1580 C.ar      1 UNK         0.0000
     28 C20         5.2240   -4.4380   -3.9880 C.ar      1 UNK         0.0000
     29 C21         4.8180   -3.2240   -3.4500 C.ar      1 UNK         0.0000
     30 C22         6.4310   -4.9980   -3.5940 C.ar      1 UNK         0.0000
     31 C23         5.6180   -2.5760   -2.5290 C.ar      1 UNK         0.0000
     32 C24         7.2290   -4.3440   -2.6770 C.ar      1 UNK         0.0000
     33 C25         6.8220   -3.1350   -2.1430 C.ar      1 UNK         0.0000
     34 H1          6.4570   -5.5640  -14.3560 H         1 UNK         0.0000
     35 H2          4.1580   -7.1010  -13.0620 H         1 UNK         0.0000
     36 H3          4.1630   -5.3550  -13.4080 H         1 UNK         0.0000
     37 H4          6.2880   -8.4440  -13.3560 H         1 UNK         0.0000
     38 H5          7.6850   -7.6720  -14.1480 H         1 UNK         0.0000
     39 H6          2.9910   -6.5900  -15.2000 H         1 UNK         0.0000
     40 H7          4.4830   -5.8490  -15.8270 H         1 UNK         0.0000
     41 H8          4.3450   -8.1450  -16.6420 H         1 UNK         0.0000
     42 H9          4.1080   -8.7530  -14.9840 H         1 UNK         0.0000
     43 H10         8.8820   -7.7000  -15.8690 H         1 UNK         0.0000
     44 H11        10.9940   -5.3520  -12.4930 H         1 UNK         0.0000
     45 H12         5.8680   -3.3630   -8.8110 H         1 UNK         0.0000
     46 H13         5.7570   -7.6260   -8.3740 H         1 UNK         0.0000
     47 H14         8.3980   -4.3680   -8.1420 H         1 UNK         0.0000
     48 H15         9.6870   -5.4350   -7.9910 H         1 UNK         0.0000
     49 H16         9.9400   -9.8390  -16.2080 H         1 UNK         0.0000
     50 H17         8.2920  -10.5740  -16.7050 H         1 UNK         0.0000
     51 H18         5.0150   -3.1110   -6.5190 H         1 UNK         0.0000
     52 H19         4.9120   -7.3620   -6.0790 H         1 UNK         0.0000
     53 H20         3.8770   -2.7880   -3.7510 H         1 UNK         0.0000
     54 H21         6.7470   -5.9450   -4.0060 H         1 UNK         0.0000
     55 H22         5.3030   -1.6310   -2.1100 H         1 UNK         0.0000
     56 H23         8.1710   -4.7780   -2.3740 H         1 UNK         0.0000
     57 H24         7.4470   -2.6260   -1.4230 H         1 UNK         0.0000
@<TRIPOS>BOND
     1    1   16 2
     2    2   27 1
     3    2   28 1
     4    3   11 1
     5    3   13 1
     6    3   16 am
     7    4    5 1
     8    4    9 1
     9    4   14 1
    10    5   17 2
    11    6   14 ar
    12    6   21 ar
    13    7   18 ar
    14    7   21 ar
    15    8   18 1
    16    8   47 1
    17    8   48 1
    18    9   10 1
    19    9   11 1
    20    9   34 1
    21   10   12 1
    22   10   35 1
    23   10   36 1
    24   11   37 1
    25   11   38 1
    26   12   13 1
    27   12   39 1
    28   12   40 1
    29   13   41 1
    30   13   42 1
    31   14   15 ar
    32   15   17 1
    33   15   18 ar
    34   16   20 1
    35   17   19 1
    36   19   22 ar
    37   19   23 ar
    38   20   24 2
    39   20   43 1
    40   21   44 1
    41   22   25 ar
    42   22   45 1
    43   23   26 ar
    44   23   46 1
    45   24   49 1
    46   24   50 1
    47   25   27 ar
    48   25   51 1
    49   26   27 ar
    50   26   52 1
    51   28   29 ar
    52   28   30 ar
    53   29   31 ar
    54   29   53 1
    55   30   32 ar
    56   30   54 1
    57   31   33 ar
    58   31   55 1
    59   32   33 ar
    60   32   56 1
    61   33   57 1
