@<TRIPOS>MOLECULE
24821094
   57    61     0     0     0
SMALL
NO_CHARGES

@<TRIPOS>ATOM
      1 O1         13.1500   -2.3040  -13.0830 O.2       1 UNK         0.0000
      2 O2          4.7430   -4.7170   -4.7100 O.3       1 UNK         0.0000
      3 N1         11.4980   -3.6940  -12.5630 N.am      1 UNK         0.0000
      4 N2          7.9780   -4.6190  -11.7610 N.pl3     1 UNK         0.0000
      5 N3          7.8270   -4.3690  -10.3920 N.2       1 UNK         0.0000
      6 N4          6.5620   -5.8520  -13.3900 N.ar      1 UNK         0.0000
      7 N5          4.6230   -6.7570  -12.5110 N.ar      1 UNK         0.0000
      8 N6          4.0260   -6.5320  -10.2410 N.pl3     1 UNK         0.0000
      9 C1          9.1040   -4.1720  -12.5830 C.3       1 UNK         0.0000
     10 C2          9.3830   -5.2080  -13.6750 C.3       1 UNK         0.0000
     11 C3         10.3500   -4.0160  -11.7040 C.3       1 UNK         0.0000
     12 C4         10.5380   -4.7260  -14.5550 C.3       1 UNK         0.0000
     13 C5         11.7960   -4.5730  -13.7010 C.3       1 UNK         0.0000
     14 C6          6.9170   -5.3480  -12.2070 C.ar      1 UNK         0.0000
     15 C7          6.0710   -5.5610  -11.1020 C.ar      1 UNK         0.0000
     16 C8         12.2590   -2.6100  -12.3140 C.2       1 UNK         0.0000
     17 C9          6.7080   -4.9030   -9.9620 C.2       1 UNK         0.0000
     18 C10         4.8900   -6.2950  -11.2930 C.ar      1 UNK         0.0000
     19 C11         6.1890   -4.8540   -8.5740 C.ar      1 UNK         0.0000
     20 C12        12.0110   -1.7970  -11.1130 C.2       1 UNK         0.0000
     21 C13         5.4450   -6.5340  -13.5200 C.ar      1 UNK         0.0000
     22 C14         5.4310   -3.7630   -8.1500 C.ar      1 UNK         0.0000
     23 C15         6.4530   -5.9010   -7.6920 C.ar      1 UNK         0.0000
     24 C16        12.7900   -0.7530  -10.8450 C.2       1 UNK         0.0000
     25 C17         4.9500   -3.7210   -6.8590 C.ar      1 UNK         0.0000
     26 C18         5.9740   -5.8500   -6.4010 C.ar      1 UNK         0.0000
     27 C19         5.2190   -4.7620   -5.9810 C.ar      1 UNK         0.0000
     28 C20         5.4620   -4.0320   -3.7830 C.ar      1 UNK         0.0000
     29 C21         4.9880   -2.8250   -3.2880 C.ar      1 UNK         0.0000
     30 C22         6.6710   -4.5390   -3.3260 C.ar      1 UNK         0.0000
     31 C23         5.7210   -2.1310   -2.3460 C.ar      1 UNK         0.0000
     32 C24         7.4020   -3.8380   -2.3880 C.ar      1 UNK         0.0000
     33 C25         6.9270   -2.6360   -1.8960 C.ar      1 UNK         0.0000
     34 H1          8.8620   -3.2140  -13.0430 H         1 UNK         0.0000
     35 H2          9.6490   -6.1590  -13.2140 H         1 UNK         0.0000
     36 H3          8.4900   -5.3400  -14.2870 H         1 UNK         0.0000
     37 H4         10.5410   -4.9480  -11.1730 H         1 UNK         0.0000
     38 H5         10.1920   -3.2100  -10.9880 H         1 UNK         0.0000
     39 H6         10.7210   -5.4540  -15.3460 H         1 UNK         0.0000
     40 H7         10.2810   -3.7650  -14.9980 H         1 UNK         0.0000
     41 H8         12.5920   -4.1340  -14.3030 H         1 UNK         0.0000
     42 H9         12.1070   -5.5510  -13.3360 H         1 UNK         0.0000
     43 H10        11.1980   -2.0500  -10.4490 H         1 UNK         0.0000
     44 H11         5.1890   -6.9280  -14.4930 H         1 UNK         0.0000
     45 H12         5.2200   -2.9530   -8.8330 H         1 UNK         0.0000
     46 H13         7.0370   -6.7500   -8.0190 H         1 UNK         0.0000
     47 H14         3.8070   -5.8170   -9.6230 H         1 UNK         0.0000
     48 H15         3.6380   -7.4130  -10.1200 H         1 UNK         0.0000
     49 H16        12.6100   -0.1580   -9.9610 H         1 UNK         0.0000
     50 H17        13.6020   -0.5000  -11.5100 H         1 UNK         0.0000
     51 H18         4.3620   -2.8760   -6.5290 H         1 UNK         0.0000
     52 H19         6.1820   -6.6590   -5.7150 H         1 UNK         0.0000
     53 H20         4.0460   -2.4300   -3.6390 H         1 UNK         0.0000
     54 H21         7.0400   -5.4800   -3.7060 H         1 UNK         0.0000
     55 H22         5.3530   -1.1910   -1.9590 H         1 UNK         0.0000
     56 H23         8.3450   -4.2300   -2.0350 H         1 UNK         0.0000
     57 H24         7.4990   -2.0910   -1.1600 H         1 UNK         0.0000
@<TRIPOS>BOND
     1    1   16 2
     2    2   27 1
     3    2   28 1
     4    3   11 1
     5    3   13 1
     6    3   16 am
     7    4    5 1
     8    4    9 1
     9    4   14 1
    10    5   17 2
    11    6   14 ar
    12    6   21 ar
    13    7   18 ar
    14    7   21 ar
    15    8   18 1
    16    8   47 1
    17    8   48 1
    18    9   10 1
    19    9   11 1
    20    9   34 1
    21   10   12 1
    22   10   35 1
    23   10   36 1
    24   11   37 1
    25   11   38 1
    26   12   13 1
    27   12   39 1
    28   12   40 1
    29   13   41 1
    30   13   42 1
    31   14   15 ar
    32   15   17 1
    33   15   18 ar
    34   16   20 1
    35   17   19 1
    36   19   22 ar
    37   19   23 ar
    38   20   24 2
    39   20   43 1
    40   21   44 1
    41   22   25 ar
    42   22   45 1
    43   23   26 ar
    44   23   46 1
    45   24   49 1
    46   24   50 1
    47   25   27 ar
    48   25   51 1
    49   26   27 ar
    50   26   52 1
    51   28   29 ar
    52   28   30 ar
    53   29   31 ar
    54   29   53 1
    55   30   32 ar
    56   30   54 1
    57   31   33 ar
    58   31   55 1
    59   32   33 ar
    60   32   56 1
    61   33   57 1
