@<TRIPOS>MOLECULE
5328940
   65    68     0     0     0
SMALL
NO_CHARGES

@<TRIPOS>ATOM
      1 Cl1         1.7640  -22.7210   -0.6460 Cl        1 UNK         0.0000
      2 Cl2         0.6610  -27.9490    0.1410 Cl        1 UNK         0.0000
      3 O1         10.8290  -24.4990    0.3560 O.3       1 UNK         0.0000
      4 O2          8.7540  -24.1190    2.1170 O.3       1 UNK         0.0000
      5 O3          3.5950  -28.2580    0.0070 O.3       1 UNK         0.0000
      6 N1          9.4970  -28.1480    0.6930 N.3       1 UNK         0.0000
      7 N2          7.0670  -27.4180    1.9840 N.3       1 UNK         0.0000
      8 N3          4.5960  -23.6260   -0.7020 N.pl3     1 UNK         0.0000
      9 N4          7.7990  -24.2140   -3.2880 N.ar      1 UNK         0.0000
     10 N5          3.1430  -23.5520   -3.9580 N.1       1 UNK         0.0000
     11 C1          8.3380  -27.6950   -0.0900 C.3       1 UNK         0.0000
     12 C2          9.5130  -27.5150    2.0190 C.3       1 UNK         0.0000
     13 C3          7.0510  -28.0500    0.6570 C.3       1 UNK         0.0000
     14 C4          8.2260  -27.8700    2.7660 C.3       1 UNK         0.0000
     15 C5         10.7500  -27.8930   -0.0290 C.3       1 UNK         0.0000
     16 C6         11.5330  -26.7870    0.6830 C.3       1 UNK         0.0000
     17 C7          5.8130  -27.6720    2.7050 C.3       1 UNK         0.0000
     18 C8         11.6050  -25.5520   -0.2170 C.3       1 UNK         0.0000
     19 C9          9.5660  -24.3330   -0.1180 C.ar      1 UNK         0.0000
     20 C10         8.5070  -24.1400    0.7790 C.ar      1 UNK         0.0000
     21 C11         6.9750  -23.9920   -1.0550 C.ar      1 UNK         0.0000
     22 C12         9.3410  -24.3580   -1.4760 C.ar      1 UNK         0.0000
     23 C13         8.0380  -24.1870   -1.9690 C.ar      1 UNK         0.0000
     24 C14         7.2320  -23.9710    0.3240 C.ar      1 UNK         0.0000
     25 C15         5.6640  -23.8200   -1.5550 C.ar      1 UNK         0.0000
     26 C16         5.4830  -23.8530   -2.9460 C.ar      1 UNK         0.0000
     27 C17         6.5970  -24.0520   -3.7790 C.ar      1 UNK         0.0000
     28 C18         3.6660  -24.6510   -0.5020 C.ar      1 UNK         0.0000
     29 C19         4.0980  -25.9600   -0.3450 C.ar      1 UNK         0.0000
     30 C20         7.6180  -24.0990    2.9850 C.3       1 UNK         0.0000
     31 C21         2.3070  -24.3590   -0.4560 C.ar      1 UNK         0.0000
     32 C22         3.1740  -26.9750   -0.1470 C.ar      1 UNK         0.0000
     33 C23         4.1780  -23.6850   -3.5110 C.1       1 UNK         0.0000
     34 C24         1.3880  -25.3740   -0.2640 C.ar      1 UNK         0.0000
     35 C25         1.8180  -26.6790   -0.1070 C.ar      1 UNK         0.0000
     36 C26         3.9440  -28.9730   -1.1810 C.3       1 UNK         0.0000
     37 H1          8.3920  -26.6150   -0.2280 H         1 UNK         0.0000
     38 H2          8.3410  -28.1870   -1.0620 H         1 UNK         0.0000
     39 H3         10.3730  -27.8770    2.5830 H         1 UNK         0.0000
     40 H4          9.5810  -26.4340    1.9050 H         1 UNK         0.0000
     41 H5          6.9830  -29.1320    0.7710 H         1 UNK         0.0000
     42 H6          6.1910  -27.6890    0.0930 H         1 UNK         0.0000
     43 H7          8.1710  -28.9500    2.9040 H         1 UNK         0.0000
     44 H8          8.2230  -27.3790    3.7390 H         1 UNK         0.0000
     45 H9         10.5250  -27.5800   -1.0480 H         1 UNK         0.0000
     46 H10        11.3490  -28.8030   -0.0520 H         1 UNK         0.0000
     47 H11        12.5420  -27.1380    0.8990 H         1 UNK         0.0000
     48 H12        11.0310  -26.5290    1.6150 H         1 UNK         0.0000
     49 H13         5.9050  -27.3180    3.7310 H         1 UNK         0.0000
     50 H14         4.9960  -27.1460    2.2110 H         1 UNK         0.0000
     51 H15         5.6070  -28.7430    2.7060 H         1 UNK         0.0000
     52 H16        11.2120  -25.7980   -1.2030 H         1 UNK         0.0000
     53 H17        12.6430  -25.2300   -0.3090 H         1 UNK         0.0000
     54 H18        10.1640  -24.5080   -2.1590 H         1 UNK         0.0000
     55 H19         6.4220  -23.8220    1.0230 H         1 UNK         0.0000
     56 H20         4.4900  -22.7790   -0.2410 H         1 UNK         0.0000
     57 H21         6.4570  -24.0770   -4.8480 H         1 UNK         0.0000
     58 H22         5.1530  -26.1890   -0.3760 H         1 UNK         0.0000
     59 H23         7.6140  -24.9980    3.6000 H         1 UNK         0.0000
     60 H24         7.6690  -23.2190    3.6270 H         1 UNK         0.0000
     61 H25         6.7070  -24.0620    2.3880 H         1 UNK         0.0000
     62 H26         0.3320  -25.1460   -0.2320 H         1 UNK         0.0000
     63 H27         3.0960  -29.5780   -1.5030 H         1 UNK         0.0000
     64 H28         4.2070  -28.2660   -1.9670 H         1 UNK         0.0000
     65 H29         4.7960  -29.6220   -0.9760 H         1 UNK         0.0000
@<TRIPOS>BOND
     1    1   31 1
     2    2   35 1
     3    3   18 1
     4    3   19 1
     5    4   20 1
     6    4   30 1
     7    5   32 1
     8    5   36 1
     9    6   11 1
    10    6   12 1
    11    6   15 1
    12    7   13 1
    13    7   14 1
    14    7   17 1
    15    8   25 1
    16    8   28 1
    17    8   56 1
    18    9   23 ar
    19    9   27 ar
    20   10   33 3
    21   11   13 1
    22   11   37 1
    23   11   38 1
    24   12   14 1
    25   12   39 1
    26   12   40 1
    27   13   41 1
    28   13   42 1
    29   14   43 1
    30   14   44 1
    31   15   16 1
    32   15   45 1
    33   15   46 1
    34   16   18 1
    35   16   47 1
    36   16   48 1
    37   17   49 1
    38   17   50 1
    39   17   51 1
    40   18   52 1
    41   18   53 1
    42   19   20 ar
    43   19   22 ar
    44   20   24 ar
    45   21   23 ar
    46   21   24 ar
    47   21   25 ar
    48   22   23 ar
    49   22   54 1
    50   24   55 1
    51   25   26 ar
    52   26   27 ar
    53   26   33 1
    54   27   57 1
    55   28   29 ar
    56   28   31 ar
    57   29   32 ar
    58   29   58 1
    59   30   59 1
    60   30   60 1
    61   30   61 1
    62   31   34 ar
    63   32   35 ar
    64   34   35 ar
    65   34   62 1
    66   36   63 1
    67   36   64 1
    68   36   65 1
