@<TRIPOS>MOLECULE
5328940
   65    68     0     0     0
SMALL
NO_CHARGES

@<TRIPOS>ATOM
      1 Cl1         7.3120  -23.7360    2.9110 Cl        1 UNK         0.0000
      2 Cl2         7.3990  -29.1350    3.0430 Cl        1 UNK         0.0000
      3 O1         10.8130  -23.1870   -3.5600 O.3       1 UNK         0.0000
      4 O2         10.7090  -23.3860   -0.8220 O.3       1 UNK         0.0000
      5 O3          5.9510  -28.9010    0.4800 O.3       1 UNK         0.0000
      6 N1         10.7500  -26.9610   -3.1170 N.3       1 UNK         0.0000
      7 N2          9.7580  -28.8340   -1.2160 N.3       1 UNK         0.0000
      8 N3          5.8530  -24.1120    0.3480 N.pl3     1 UNK         0.0000
      9 N4          6.1110  -23.8050   -3.7920 N.ar      1 UNK         0.0000
     10 N5          2.4930  -24.4850   -0.7900 N.1       1 UNK         0.0000
     11 C1         11.3890  -28.2740   -2.9540 C.3       1 UNK         0.0000
     12 C2          9.3130  -27.0380   -2.8180 C.3       1 UNK         0.0000
     13 C3         11.1960  -28.7580   -1.5160 C.3       1 UNK         0.0000
     14 C4          9.1190  -27.5220   -1.3790 C.3       1 UNK         0.0000
     15 C5         10.9790  -26.4280   -4.4660 C.3       1 UNK         0.0000
     16 C6         11.8790  -25.1940   -4.3820 C.3       1 UNK         0.0000
     17 C7          9.5290  -29.3680    0.1330 C.3       1 UNK         0.0000
     18 C8         11.0710  -23.9460   -4.7420 C.3       1 UNK         0.0000
     19 C9          9.6180  -23.3880   -2.9460 C.ar      1 UNK         0.0000
     20 C10         9.5640  -23.4900   -1.5490 C.ar      1 UNK         0.0000
     21 C11         7.1920  -23.7980   -1.6590 C.ar      1 UNK         0.0000
     22 C12         8.4720  -23.4890   -3.7030 C.ar      1 UNK         0.0000
     23 C13         7.2370  -23.6970   -3.0710 C.ar      1 UNK         0.0000
     24 C14         8.3740  -23.6910   -0.9110 C.ar      1 UNK         0.0000
     25 C15         5.9450  -24.0070   -1.0260 C.ar      1 UNK         0.0000
     26 C16         4.8060  -24.1050   -1.8380 C.ar      1 UNK         0.0000
     27 C17         4.9440  -23.9930   -3.2320 C.ar      1 UNK         0.0000
     28 C18         6.2180  -25.3030    0.9840 C.ar      1 UNK         0.0000
     29 C19         5.8990  -26.5240    0.4080 C.ar      1 UNK         0.0000
     30 C20        11.2890  -24.6040   -0.3490 C.3       1 UNK         0.0000
     31 C21         6.9060  -25.2640    2.1920 C.ar      1 UNK         0.0000
     32 C22         6.2620  -27.7030    1.0420 C.ar      1 UNK         0.0000
     33 C23         3.5160  -24.3170   -1.2540 C.1       1 UNK         0.0000
     34 C24         7.2620  -26.4400    2.8230 C.ar      1 UNK         0.0000
     35 C25         6.9440  -27.6580    2.2500 C.ar      1 UNK         0.0000
     36 C26         5.7010  -28.9120   -0.9270 C.3       1 UNK         0.0000
     37 H1         10.9350  -28.9870   -3.6430 H         1 UNK         0.0000
     38 H2         12.4540  -28.1890   -3.1690 H         1 UNK         0.0000
     39 H3          8.8650  -26.0500   -2.9330 H         1 UNK         0.0000
     40 H4          8.8360  -27.7360   -3.5040 H         1 UNK         0.0000
     41 H5         11.6730  -28.0590   -0.8290 H         1 UNK         0.0000
     42 H6         11.6440  -29.7450   -1.4000 H         1 UNK         0.0000
     43 H7          9.5730  -26.8080   -0.6910 H         1 UNK         0.0000
     44 H8          8.0540  -27.6060   -1.1650 H         1 UNK         0.0000
     45 H9         10.0250  -26.1510   -4.9140 H         1 UNK         0.0000
     46 H10        11.4620  -27.1870   -5.0800 H         1 UNK         0.0000
     47 H11        12.7110  -25.3020   -5.0780 H         1 UNK         0.0000
     48 H12        12.2670  -25.0950   -3.3670 H         1 UNK         0.0000
     49 H13         9.1770  -28.5700    0.7850 H         1 UNK         0.0000
     50 H14         8.7790  -30.1580    0.0880 H         1 UNK         0.0000
     51 H15        10.4620  -29.7740    0.5250 H         1 UNK         0.0000
     52 H16        10.1270  -24.2440   -5.1970 H         1 UNK         0.0000
     53 H17        11.6380  -23.3370   -5.4480 H         1 UNK         0.0000
     54 H18         8.5250  -23.4100   -4.7780 H         1 UNK         0.0000
     55 H19         8.3420  -23.7680    0.1650 H         1 UNK         0.0000
     56 H20         5.5340  -23.3600    0.8710 H         1 UNK         0.0000
     57 H21         4.0660  -24.0680   -3.8550 H         1 UNK         0.0000
     58 H22         5.3690  -26.5570   -0.5320 H         1 UNK         0.0000
     59 H23        10.5230  -25.3780   -0.3020 H         1 UNK         0.0000
     60 H24        12.0800  -24.9170   -1.0310 H         1 UNK         0.0000
     61 H25        11.7070  -24.4450    0.6440 H         1 UNK         0.0000
     62 H26         7.7930  -26.4080    3.7640 H         1 UNK         0.0000
     63 H27         5.1220  -28.0300   -1.2000 H         1 UNK         0.0000
     64 H28         6.6490  -28.9080   -1.4650 H         1 UNK         0.0000
     65 H29         5.1390  -29.8100   -1.1880 H         1 UNK         0.0000
@<TRIPOS>BOND
     1    1   31 1
     2    2   35 1
     3    3   18 1
     4    3   19 1
     5    4   20 1
     6    4   30 1
     7    5   32 1
     8    5   36 1
     9    6   11 1
    10    6   12 1
    11    6   15 1
    12    7   13 1
    13    7   14 1
    14    7   17 1
    15    8   25 1
    16    8   28 1
    17    8   56 1
    18    9   23 ar
    19    9   27 ar
    20   10   33 3
    21   11   13 1
    22   11   37 1
    23   11   38 1
    24   12   14 1
    25   12   39 1
    26   12   40 1
    27   13   41 1
    28   13   42 1
    29   14   43 1
    30   14   44 1
    31   15   16 1
    32   15   45 1
    33   15   46 1
    34   16   18 1
    35   16   47 1
    36   16   48 1
    37   17   49 1
    38   17   50 1
    39   17   51 1
    40   18   52 1
    41   18   53 1
    42   19   20 ar
    43   19   22 ar
    44   20   24 ar
    45   21   23 ar
    46   21   24 ar
    47   21   25 ar
    48   22   23 ar
    49   22   54 1
    50   24   55 1
    51   25   26 ar
    52   26   27 ar
    53   26   33 1
    54   27   57 1
    55   28   29 ar
    56   28   31 ar
    57   29   32 ar
    58   29   58 1
    59   30   59 1
    60   30   60 1
    61   30   61 1
    62   31   34 ar
    63   32   35 ar
    64   34   35 ar
    65   34   62 1
    66   36   63 1
    67   36   64 1
    68   36   65 1
