@<TRIPOS>MOLECULE
5328940
   65    68     0     0     0
SMALL
NO_CHARGES

@<TRIPOS>ATOM
      1 Cl1         5.0700  -29.2250    1.8150 Cl        1 UNK         0.0000
      2 Cl2         1.6740  -27.2160    5.5030 Cl        1 UNK         0.0000
      3 O1          3.4930  -24.7350   -3.4810 O.3       1 UNK         0.0000
      4 O2          3.2030  -27.0220   -1.9870 O.3       1 UNK         0.0000
      5 O3          3.3060  -24.7730    5.2060 O.3       1 UNK         0.0000
      6 N1          0.9500  -23.8470   -1.2270 N.3       1 UNK         0.0000
      7 N2          0.2930  -24.8600    1.3520 N.3       1 UNK         0.0000
      8 N3          6.3360  -26.5380    1.9410 N.pl3     1 UNK         0.0000
      9 N4          6.7010  -23.1080   -0.3820 N.ar      1 UNK         0.0000
     10 N5          8.7590  -24.5540    3.6490 N.1       1 UNK         0.0000
     11 C1         -0.4480  -24.1110   -0.8580 C.3       1 UNK         0.0000
     12 C2          1.7390  -23.4650   -0.0470 C.3       1 UNK         0.0000
     13 C3         -0.4960  -25.2410    0.1720 C.3       1 UNK         0.0000
     14 C4          1.6900  -24.5950    0.9830 C.3       1 UNK         0.0000
     15 C5          1.0330  -22.8180   -2.2720 C.3       1 UNK         0.0000
     16 C6          1.4390  -23.4670   -3.5960 C.3       1 UNK         0.0000
     17 C7          0.2100  -25.8880    2.3970 C.3       1 UNK         0.0000
     18 C8          2.9610  -23.4340   -3.7360 C.3       1 UNK         0.0000
     19 C9          4.2210  -24.8920   -2.3440 C.ar      1 UNK         0.0000
     20 C10         4.0730  -26.0590   -1.5820 C.ar      1 UNK         0.0000
     21 C11         5.6940  -25.2450   -0.0170 C.ar      1 UNK         0.0000
     22 C12         5.0960  -23.9030   -1.9540 C.ar      1 UNK         0.0000
     23 C13         5.8490  -24.0630   -0.7810 C.ar      1 UNK         0.0000
     24 C14         4.7950  -26.2380   -0.4370 C.ar      1 UNK         0.0000
     25 C15         6.4540  -25.4030    1.1640 C.ar      1 UNK         0.0000
     26 C16         7.3310  -24.3690    1.5220 C.ar      1 UNK         0.0000
     27 C17         7.4210  -23.2300    0.7040 C.ar      1 UNK         0.0000
     28 C18         5.2330  -26.6960    2.7850 C.ar      1 UNK         0.0000
     29 C19         4.8130  -25.6430    3.5850 C.ar      1 UNK         0.0000
     30 C20         3.7590  -28.2920   -2.3370 C.3       1 UNK         0.0000
     31 C21         4.5510  -27.9080    2.8200 C.ar      1 UNK         0.0000
     32 C22         3.7190  -25.8030    4.4210 C.ar      1 UNK         0.0000
     33 C23         8.1280  -24.4720    2.7080 C.1       1 UNK         0.0000
     34 C24         3.4630  -28.0660    3.6580 C.ar      1 UNK         0.0000
     35 C25         3.0450  -27.0160    4.4560 C.ar      1 UNK         0.0000
     36 C26         2.4840  -23.7780    4.5910 C.3       1 UNK         0.0000
     37 H1         -0.8880  -23.2100   -0.4310 H         1 UNK         0.0000
     38 H2         -1.0090  -24.4040   -1.7460 H         1 UNK         0.0000
     39 H3          2.7730  -23.2870   -0.3450 H         1 UNK         0.0000
     40 H4          1.3240  -22.5570    0.3890 H         1 UNK         0.0000
     41 H5         -0.0810  -26.1500   -0.2640 H         1 UNK         0.0000
     42 H6         -1.5300  -25.4200    0.4690 H         1 UNK         0.0000
     43 H7          2.1310  -25.4960    0.5560 H         1 UNK         0.0000
     44 H8          2.2520  -24.3020    1.8700 H         1 UNK         0.0000
     45 H9          1.7760  -22.0730   -1.9900 H         1 UNK         0.0000
     46 H10         0.0620  -22.3370   -2.3860 H         1 UNK         0.0000
     47 H11         0.9860  -22.9200   -4.4230 H         1 UNK         0.0000
     48 H12         1.0950  -24.5020   -3.6150 H         1 UNK         0.0000
     49 H13        -0.6800  -25.7190    3.0040 H         1 UNK         0.0000
     50 H14         0.1510  -26.8730    1.9340 H         1 UNK         0.0000
     51 H15         1.0960  -25.8350    3.0290 H         1 UNK         0.0000
     52 H16         3.3760  -22.7240   -3.0210 H         1 UNK         0.0000
     53 H17         3.2270  -23.1260   -4.7490 H         1 UNK         0.0000
     54 H18         5.2010  -23.0080   -2.5490 H         1 UNK         0.0000
     55 H19         4.6750  -27.1400    0.1440 H         1 UNK         0.0000
     56 H20         7.0190  -27.2260    1.9010 H         1 UNK         0.0000
     57 H21         8.0970  -22.4350    0.9800 H         1 UNK         0.0000
     58 H22         5.3380  -24.7000    3.5570 H         1 UNK         0.0000
     59 H23         4.5530  -28.5470   -1.6370 H         1 UNK         0.0000
     60 H24         2.9790  -29.0530   -2.2960 H         1 UNK         0.0000
     61 H25         4.1670  -28.2430   -3.3470 H         1 UNK         0.0000
     62 H26         2.9370  -29.0090    3.6870 H         1 UNK         0.0000
     63 H27         3.0980  -22.9230    4.3100 H         1 UNK         0.0000
     64 H28         2.0120  -24.1950    3.7020 H         1 UNK         0.0000
     65 H29         1.7150  -23.4580    5.2950 H         1 UNK         0.0000
@<TRIPOS>BOND
     1    1   31 1
     2    2   35 1
     3    3   18 1
     4    3   19 1
     5    4   20 1
     6    4   30 1
     7    5   32 1
     8    5   36 1
     9    6   11 1
    10    6   12 1
    11    6   15 1
    12    7   13 1
    13    7   14 1
    14    7   17 1
    15    8   25 1
    16    8   28 1
    17    8   56 1
    18    9   23 ar
    19    9   27 ar
    20   10   33 3
    21   11   13 1
    22   11   37 1
    23   11   38 1
    24   12   14 1
    25   12   39 1
    26   12   40 1
    27   13   41 1
    28   13   42 1
    29   14   43 1
    30   14   44 1
    31   15   16 1
    32   15   45 1
    33   15   46 1
    34   16   18 1
    35   16   47 1
    36   16   48 1
    37   17   49 1
    38   17   50 1
    39   17   51 1
    40   18   52 1
    41   18   53 1
    42   19   20 ar
    43   19   22 ar
    44   20   24 ar
    45   21   23 ar
    46   21   24 ar
    47   21   25 ar
    48   22   23 ar
    49   22   54 1
    50   24   55 1
    51   25   26 ar
    52   26   27 ar
    53   26   33 1
    54   27   57 1
    55   28   29 ar
    56   28   31 ar
    57   29   32 ar
    58   29   58 1
    59   30   59 1
    60   30   60 1
    61   30   61 1
    62   31   34 ar
    63   32   35 ar
    64   34   35 ar
    65   34   62 1
    66   36   63 1
    67   36   64 1
    68   36   65 1
