@<TRIPOS>MOLECULE
5328940
   65    68     0     0     0
SMALL
NO_CHARGES

@<TRIPOS>ATOM
      1 Cl1         7.3370  -23.7680    3.0150 Cl        1 UNK         0.0000
      2 Cl2         6.0670  -29.0070    3.3440 Cl        1 UNK         0.0000
      3 O1          2.2830  -23.3640   -4.7880 O.3       1 UNK         0.0000
      4 O2          1.6580  -23.3700   -2.1130 O.3       1 UNK         0.0000
      5 O3          4.9230  -28.5690    0.6570 O.3       1 UNK         0.0000
      6 N1          3.5550  -27.4100   -5.0820 N.3       1 UNK         0.0000
      7 N2          5.9050  -27.1990   -3.4880 N.3       1 UNK         0.0000
      8 N3          6.0320  -23.9170    0.3480 N.pl3     1 UNK         0.0000
      9 N4          6.8800  -23.8900   -3.7240 N.ar      1 UNK         0.0000
     10 N5          9.5730  -24.2980    0.1690 N.1       1 UNK         0.0000
     11 C1          3.4660  -27.0680   -3.6550 C.3       1 UNK         0.0000
     12 C2          4.8120  -26.9160   -5.6600 C.3       1 UNK         0.0000
     13 C3          4.6470  -27.6910   -2.9090 C.3       1 UNK         0.0000
     14 C4          5.9930  -27.5390   -4.9140 C.3       1 UNK         0.0000
     15 C5          2.3950  -26.8910   -5.8190 C.3       1 UNK         0.0000
     16 C6          1.7880  -25.7140   -5.0550 C.3       1 UNK         0.0000
     17 C7          7.0640  -27.7160   -2.7490 C.3       1 UNK         0.0000
     18 C8          2.1520  -24.4060   -5.7570 C.3       1 UNK         0.0000
     19 C9          3.2730  -23.4980   -3.8670 C.ar      1 UNK         0.0000
     20 C10         2.9550  -23.5010   -2.5020 C.ar      1 UNK         0.0000
     21 C11         5.2720  -23.7690   -1.9590 C.ar      1 UNK         0.0000
     22 C12         4.5780  -23.6290   -4.2850 C.ar      1 UNK         0.0000
     23 C13         5.6020  -23.7670   -3.3350 C.ar      1 UNK         0.0000
     24 C14         3.9330  -23.6340   -1.5600 C.ar      1 UNK         0.0000
     25 C15         6.3060  -23.9090   -1.0050 C.ar      1 UNK         0.0000
     26 C16         7.6200  -24.0390   -1.4780 C.ar      1 UNK         0.0000
     27 C17         7.8560  -24.0270   -2.8630 C.ar      1 UNK         0.0000
     28 C18         6.0390  -25.1240    1.0550 C.ar      1 UNK         0.0000
     29 C19         5.4710  -26.2600    0.4970 C.ar      1 UNK         0.0000
     30 C20         1.0260  -24.5290   -1.5640 C.3       1 UNK         0.0000
     31 C21         6.6200  -25.1870    2.3170 C.ar      1 UNK         0.0000
     32 C22         5.4790  -27.4540    1.2010 C.ar      1 UNK         0.0000
     33 C23         8.7100  -24.1840   -0.5600 C.1       1 UNK         0.0000
     34 C24         6.6220  -26.3780    3.0180 C.ar      1 UNK         0.0000
     35 C25         6.0560  -27.5110    2.4620 C.ar      1 UNK         0.0000
     36 C26         5.8160  -29.5200    0.0720 C.3       1 UNK         0.0000
     37 H1          3.4930  -25.9840   -3.5380 H         1 UNK         0.0000
     38 H2          2.5320  -27.4550   -3.2460 H         1 UNK         0.0000
     39 H3          4.8590  -27.1930   -6.7140 H         1 UNK         0.0000
     40 H4          4.8540  -25.8310   -5.5670 H         1 UNK         0.0000
     41 H5          4.6050  -28.7770   -3.0030 H         1 UNK         0.0000
     42 H6          4.6000  -27.4150   -1.8550 H         1 UNK         0.0000
     43 H7          5.9670  -28.6230   -5.0310 H         1 UNK         0.0000
     44 H8          6.9260  -27.1530   -5.3240 H         1 UNK         0.0000
     45 H9          1.6500  -27.6800   -5.9250 H         1 UNK         0.0000
     46 H10         2.7120  -26.5570   -6.8070 H         1 UNK         0.0000
     47 H11         2.1780  -25.7020   -4.0370 H         1 UNK         0.0000
     48 H12         0.7030  -25.8210   -5.0260 H         1 UNK         0.0000
     49 H13         7.9560  -27.1610   -3.0370 H         1 UNK         0.0000
     50 H14         6.8940  -27.6000   -1.6790 H         1 UNK         0.0000
     51 H15         7.2010  -28.7720   -2.9840 H         1 UNK         0.0000
     52 H16         1.3690  -24.1440   -6.4680 H         1 UNK         0.0000
     53 H17         3.0980  -24.5290   -6.2870 H         1 UNK         0.0000
     54 H18         4.8120  -23.6250   -5.3390 H         1 UNK         0.0000
     55 H19         3.6790  -23.6350   -0.5100 H         1 UNK         0.0000
     56 H20         5.8340  -23.0870    0.8080 H         1 UNK         0.0000
     57 H21         8.8680  -24.1270   -3.2260 H         1 UNK         0.0000
     58 H22         5.0230  -26.2140   -0.4850 H         1 UNK         0.0000
     59 H23        -0.0310  -24.3230   -1.3970 H         1 UNK         0.0000
     60 H24         1.1290  -25.3620   -2.2600 H         1 UNK         0.0000
     61 H25         1.5000  -24.7860   -0.6160 H         1 UNK         0.0000
     62 H26         7.0710  -26.4250    4.0000 H         1 UNK         0.0000
     63 H27         6.7650  -29.5030    0.6080 H         1 UNK         0.0000
     64 H28         5.3790  -30.5160    0.1370 H         1 UNK         0.0000
     65 H29         5.9850  -29.2640   -0.9740 H         1 UNK         0.0000
@<TRIPOS>BOND
     1    1   31 1
     2    2   35 1
     3    3   18 1
     4    3   19 1
     5    4   20 1
     6    4   30 1
     7    5   32 1
     8    5   36 1
     9    6   11 1
    10    6   12 1
    11    6   15 1
    12    7   13 1
    13    7   14 1
    14    7   17 1
    15    8   25 1
    16    8   28 1
    17    8   56 1
    18    9   23 ar
    19    9   27 ar
    20   10   33 3
    21   11   13 1
    22   11   37 1
    23   11   38 1
    24   12   14 1
    25   12   39 1
    26   12   40 1
    27   13   41 1
    28   13   42 1
    29   14   43 1
    30   14   44 1
    31   15   16 1
    32   15   45 1
    33   15   46 1
    34   16   18 1
    35   16   47 1
    36   16   48 1
    37   17   49 1
    38   17   50 1
    39   17   51 1
    40   18   52 1
    41   18   53 1
    42   19   20 ar
    43   19   22 ar
    44   20   24 ar
    45   21   23 ar
    46   21   24 ar
    47   21   25 ar
    48   22   23 ar
    49   22   54 1
    50   24   55 1
    51   25   26 ar
    52   26   27 ar
    53   26   33 1
    54   27   57 1
    55   28   29 ar
    56   28   31 ar
    57   29   32 ar
    58   29   58 1
    59   30   59 1
    60   30   60 1
    61   30   61 1
    62   31   34 ar
    63   32   35 ar
    64   34   35 ar
    65   34   62 1
    66   36   63 1
    67   36   64 1
    68   36   65 1
