@<TRIPOS>MOLECULE
5328940
   65    68     0     0     0
SMALL
NO_CHARGES

@<TRIPOS>ATOM
      1 Cl1         7.3450  -23.7750    2.7920 Cl        1 UNK         0.0000
      2 Cl2         7.1490  -29.1680    3.0100 Cl        1 UNK         0.0000
      3 O1         10.8760  -23.2750   -3.4800 O.3       1 UNK         0.0000
      4 O2         10.6890  -23.4750   -0.7460 O.3       1 UNK         0.0000
      5 O3          5.6360  -28.8940    0.4890 O.3       1 UNK         0.0000
      6 N1          9.9930  -26.6800   -3.8290 N.3       1 UNK         0.0000
      7 N2          7.4280  -27.8220   -3.3560 N.3       1 UNK         0.0000
      8 N3          5.7880  -24.1100    0.2810 N.pl3     1 UNK         0.0000
      9 N4          6.1720  -23.8020   -3.8490 N.ar      1 UNK         0.0000
     10 N5          2.4560  -24.4170   -0.9530 N.1       1 UNK         0.0000
     11 C1          9.6990  -27.3670   -2.5630 C.3       1 UNK         0.0000
     12 C2          9.2150  -27.2610   -4.9320 C.3       1 UNK         0.0000
     13 C3          8.2070  -27.2420   -2.2520 C.3       1 UNK         0.0000
     14 C4          7.7230  -27.1360   -4.6210 C.3       1 UNK         0.0000
     15 C5         11.4320  -26.7120   -4.1230 C.3       1 UNK         0.0000
     16 C6         12.0580  -25.3640   -3.7640 C.3       1 UNK         0.0000
     17 C7          5.9900  -27.7900   -3.0600 C.3       1 UNK         0.0000
     18 C8         11.2810  -24.2400   -4.4520 C.3       1 UNK         0.0000
     19 C9          9.6600  -23.4540   -2.9000 C.ar      1 UNK         0.0000
     20 C10         9.5640  -23.5560   -1.5060 C.ar      1 UNK         0.0000
     21 C11         7.1910  -23.8190   -1.6860 C.ar      1 UNK         0.0000
     22 C12         8.5350  -23.5330   -3.6900 C.ar      1 UNK         0.0000
     23 C13         7.2780  -23.7170   -3.0950 C.ar      1 UNK         0.0000
     24 C14         8.3530  -23.7360   -0.9030 C.ar      1 UNK         0.0000
     25 C15         5.9220  -24.0050   -1.0890 C.ar      1 UNK         0.0000
     26 C16         4.8060  -24.0800   -1.9340 C.ar      1 UNK         0.0000
     27 C17         4.9860  -23.9690   -3.3230 C.ar      1 UNK         0.0000
     28 C18         6.1090  -25.3090    0.9260 C.ar      1 UNK         0.0000
     29 C19         5.7080  -26.5200    0.3800 C.ar      1 UNK         0.0000
     30 C20        11.1880  -24.6970   -0.1940 C.3       1 UNK         0.0000
     31 C21         6.8360  -25.2890    2.1110 C.ar      1 UNK         0.0000
     32 C22         6.0280  -27.7070    1.0210 C.ar      1 UNK         0.0000
     33 C23         3.4950  -24.2680   -1.3880 C.1       1 UNK         0.0000
     34 C24         7.1480  -26.4730    2.7510 C.ar      1 UNK         0.0000
     35 C25         6.7480  -27.6810    2.2070 C.ar      1 UNK         0.0000
     36 C26         4.2520  -29.0300    0.1550 C.3       1 UNK         0.0000
     37 H1          9.9660  -28.4200   -2.6500 H         1 UNK         0.0000
     38 H2         10.2780  -26.9100   -1.7590 H         1 UNK         0.0000
     39 H3          9.4410  -26.7270   -5.8550 H         1 UNK         0.0000
     40 H4          9.4760  -28.3120   -5.0460 H         1 UNK         0.0000
     41 H5          7.9450  -26.1900   -2.1370 H         1 UNK         0.0000
     42 H6          7.9810  -27.7750   -1.3280 H         1 UNK         0.0000
     43 H7          7.4560  -26.0830   -4.5340 H         1 UNK         0.0000
     44 H8          7.1450  -27.5910   -5.4250 H         1 UNK         0.0000
     45 H9         11.5800  -26.9110   -5.1840 H         1 UNK         0.0000
     46 H10        11.9050  -27.5000   -3.5370 H         1 UNK         0.0000
     47 H11        13.0950  -25.3450   -4.0970 H         1 UNK         0.0000
     48 H12        12.0210  -25.2220   -2.6830 H         1 UNK         0.0000
     49 H13         5.5600  -26.8670   -3.4470 H         1 UNK         0.0000
     50 H14         5.5030  -28.6430   -3.5330 H         1 UNK         0.0000
     51 H15         5.8410  -27.8370   -1.9810 H         1 UNK         0.0000
     52 H16        10.4000  -24.6550   -4.9410 H         1 UNK         0.0000
     53 H17        11.9180  -23.7610   -5.1960 H         1 UNK         0.0000
     54 H18         8.6210  -23.4530   -4.7640 H         1 UNK         0.0000
     55 H19         8.2880  -23.8130    0.1720 H         1 UNK         0.0000
     56 H20         5.4710  -23.3520    0.7970 H         1 UNK         0.0000
     57 H21         4.1250  -24.0260   -3.9720 H         1 UNK         0.0000
     58 H22         5.1480  -26.5380   -0.5430 H         1 UNK         0.0000
     59 H23        10.6810  -24.9040    0.7480 H         1 UNK         0.0000
     60 H24        11.0040  -25.5120   -0.8930 H         1 UNK         0.0000
     61 H25        12.2590  -24.6030   -0.0170 H         1 UNK         0.0000
     62 H26         7.7100  -26.4560    3.6740 H         1 UNK         0.0000
     63 H27         4.1380  -29.0150   -0.9290 H         1 UNK         0.0000
     64 H28         3.8750  -29.9740    0.5480 H         1 UNK         0.0000
     65 H29         3.6910  -28.2030    0.5910 H         1 UNK         0.0000
@<TRIPOS>BOND
     1    1   31 1
     2    2   35 1
     3    3   18 1
     4    3   19 1
     5    4   20 1
     6    4   30 1
     7    5   32 1
     8    5   36 1
     9    6   11 1
    10    6   12 1
    11    6   15 1
    12    7   13 1
    13    7   14 1
    14    7   17 1
    15    8   25 1
    16    8   28 1
    17    8   56 1
    18    9   23 ar
    19    9   27 ar
    20   10   33 3
    21   11   13 1
    22   11   37 1
    23   11   38 1
    24   12   14 1
    25   12   39 1
    26   12   40 1
    27   13   41 1
    28   13   42 1
    29   14   43 1
    30   14   44 1
    31   15   16 1
    32   15   45 1
    33   15   46 1
    34   16   18 1
    35   16   47 1
    36   16   48 1
    37   17   49 1
    38   17   50 1
    39   17   51 1
    40   18   52 1
    41   18   53 1
    42   19   20 ar
    43   19   22 ar
    44   20   24 ar
    45   21   23 ar
    46   21   24 ar
    47   21   25 ar
    48   22   23 ar
    49   22   54 1
    50   24   55 1
    51   25   26 ar
    52   26   27 ar
    53   26   33 1
    54   27   57 1
    55   28   29 ar
    56   28   31 ar
    57   29   32 ar
    58   29   58 1
    59   30   59 1
    60   30   60 1
    61   30   61 1
    62   31   34 ar
    63   32   35 ar
    64   34   35 ar
    65   34   62 1
    66   36   63 1
    67   36   64 1
    68   36   65 1
