@<TRIPOS>MOLECULE
5328940
   65    68     0     0     0
SMALL
NO_CHARGES

@<TRIPOS>ATOM
      1 Cl1         7.4430  -23.8400    3.3370 Cl        1 UNK         0.0000
      2 Cl2         5.6230  -28.9110    3.7150 Cl        1 UNK         0.0000
      3 O1          2.7280  -23.2380   -4.6610 O.3       1 UNK         0.0000
      4 O2          2.0230  -23.1090   -2.0090 O.3       1 UNK         0.0000
      5 O3          4.6640  -28.4310    0.9630 O.3       1 UNK         0.0000
      6 N1          0.0030  -25.7630   -3.7030 N.3       1 UNK         0.0000
      7 N2         -0.1900  -26.2910   -0.9120 N.3       1 UNK         0.0000
      8 N3          6.2600  -23.9270    0.6100 N.pl3     1 UNK         0.0000
      9 N4          7.2320  -24.0980   -3.4300 N.ar      1 UNK         0.0000
     10 N5          9.7630  -24.5970    0.5600 N.1       1 UNK         0.0000
     11 C1         -0.8150  -24.9060   -2.8320 C.3       1 UNK         0.0000
     12 C2          1.1440  -26.3230   -2.9650 C.3       1 UNK         0.0000
     13 C3         -1.3310  -25.7290   -1.6510 C.3       1 UNK         0.0000
     14 C4          0.6280  -27.1460   -1.7830 C.3       1 UNK         0.0000
     15 C5          0.4540  -25.0260   -4.8910 C.3       1 UNK         0.0000
     16 C6          1.8900  -25.4320   -5.2290 C.3       1 UNK         0.0000
     17 C7         -0.6410  -27.0260    0.2760 C.3       1 UNK         0.0000
     18 C8          2.6680  -24.2070   -5.7100 C.3       1 UNK         0.0000
     19 C9          3.6750  -23.4220   -3.7040 C.ar      1 UNK         0.0000
     20 C10         3.3160  -23.3560   -2.3510 C.ar      1 UNK         0.0000
     21 C11         5.5860  -23.7920   -1.7240 C.ar      1 UNK         0.0000
     22 C12         4.9780  -23.6710   -4.0740 C.ar      1 UNK         0.0000
     23 C13         5.9570  -23.8610   -3.0880 C.ar      1 UNK         0.0000
     24 C14         4.2510  -23.5370   -1.3730 C.ar      1 UNK         0.0000
     25 C15         6.5760  -23.9840   -0.7330 C.ar      1 UNK         0.0000
     26 C16         7.8890  -24.2350   -1.1580 C.ar      1 UNK         0.0000
     27 C17         8.1680  -24.2850   -2.5340 C.ar      1 UNK         0.0000
     28 C18         6.1080  -25.1080    1.3430 C.ar      1 UNK         0.0000
     29 C19         5.4540  -26.1950    0.7820 C.ar      1 UNK         0.0000
     30 C20         1.7020  -23.1470   -0.6160 C.3       1 UNK         0.0000
     31 C21         6.6170  -25.1970    2.6340 C.ar      1 UNK         0.0000
     32 C22         5.3050  -27.3650    1.5110 C.ar      1 UNK         0.0000
     33 C23         8.9340  -24.4370   -0.2000 C.1       1 UNK         0.0000
     34 C24         6.4620  -26.3630    3.3610 C.ar      1 UNK         0.0000
     35 C25         5.8100  -27.4460    2.8010 C.ar      1 UNK         0.0000
     36 C26         5.3030  -29.0750   -0.1410 C.3       1 UNK         0.0000
     37 H1         -0.2080  -24.0790   -2.4630 H         1 UNK         0.0000
     38 H2         -1.6590  -24.5140   -3.3990 H         1 UNK         0.0000
     39 H3          1.7260  -26.9630   -3.6280 H         1 UNK         0.0000
     40 H4          1.7720  -25.5120   -2.5970 H         1 UNK         0.0000
     41 H5         -1.9590  -26.5400   -2.0190 H         1 UNK         0.0000
     42 H6         -1.9130  -25.0900   -0.9880 H         1 UNK         0.0000
     43 H7          0.0220  -27.9730   -2.1520 H         1 UNK         0.0000
     44 H8          1.4730  -27.5390   -1.2180 H         1 UNK         0.0000
     45 H9          0.4180  -23.9560   -4.6900 H         1 UNK         0.0000
     46 H10        -0.1960  -25.2600   -5.7340 H         1 UNK         0.0000
     47 H11         1.8780  -26.1860   -6.0160 H         1 UNK         0.0000
     48 H12         2.3710  -25.8430   -4.3410 H         1 UNK         0.0000
     49 H13         0.1730  -27.0860    0.9970 H         1 UNK         0.0000
     50 H14        -1.4870  -26.5060    0.7260 H         1 UNK         0.0000
     51 H15        -0.9460  -28.0320   -0.0140 H         1 UNK         0.0000
     52 H16         2.1670  -23.7740   -6.5750 H         1 UNK         0.0000
     53 H17         3.6800  -24.5040   -5.9870 H         1 UNK         0.0000
     54 H18         5.2430  -23.7200   -5.1190 H         1 UNK         0.0000
     55 H19         3.9660  -23.4850   -0.3330 H         1 UNK         0.0000
     56 H20         6.1440  -23.0680    1.0450 H         1 UNK         0.0000
     57 H21         9.1780  -24.4780   -2.8600 H         1 UNK         0.0000
     58 H22         5.0610  -26.1310   -0.2230 H         1 UNK         0.0000
     59 H23         1.1520  -22.2470   -0.3440 H         1 UNK         0.0000
     60 H24         1.0900  -24.0250   -0.4090 H         1 UNK         0.0000
     61 H25         2.6220  -23.2000   -0.0330 H         1 UNK         0.0000
     62 H26         6.8550  -26.4280    4.3650 H         1 UNK         0.0000
     63 H27         5.8830  -29.9250    0.2200 H         1 UNK         0.0000
     64 H28         4.5480  -29.4220   -0.8460 H         1 UNK         0.0000
     65 H29         5.9670  -28.3680   -0.6390 H         1 UNK         0.0000
@<TRIPOS>BOND
     1    1   31 1
     2    2   35 1
     3    3   18 1
     4    3   19 1
     5    4   20 1
     6    4   30 1
     7    5   32 1
     8    5   36 1
     9    6   11 1
    10    6   12 1
    11    6   15 1
    12    7   13 1
    13    7   14 1
    14    7   17 1
    15    8   25 1
    16    8   28 1
    17    8   56 1
    18    9   23 ar
    19    9   27 ar
    20   10   33 3
    21   11   13 1
    22   11   37 1
    23   11   38 1
    24   12   14 1
    25   12   39 1
    26   12   40 1
    27   13   41 1
    28   13   42 1
    29   14   43 1
    30   14   44 1
    31   15   16 1
    32   15   45 1
    33   15   46 1
    34   16   18 1
    35   16   47 1
    36   16   48 1
    37   17   49 1
    38   17   50 1
    39   17   51 1
    40   18   52 1
    41   18   53 1
    42   19   20 ar
    43   19   22 ar
    44   20   24 ar
    45   21   23 ar
    46   21   24 ar
    47   21   25 ar
    48   22   23 ar
    49   22   54 1
    50   24   55 1
    51   25   26 ar
    52   26   27 ar
    53   26   33 1
    54   27   57 1
    55   28   29 ar
    56   28   31 ar
    57   29   32 ar
    58   29   58 1
    59   30   59 1
    60   30   60 1
    61   30   61 1
    62   31   34 ar
    63   32   35 ar
    64   34   35 ar
    65   34   62 1
    66   36   63 1
    67   36   64 1
    68   36   65 1
