@<TRIPOS>MOLECULE
24821094
   57    61     0     0     0
SMALL
NO_CHARGES

@<TRIPOS>ATOM
      1 O1          1.1220   -8.1080   -4.2300 O.2       1 UNK         0.0000
      2 O2         12.1020   -4.1800  -10.8510 O.3       1 UNK         0.0000
      3 N1          3.0450   -7.7190   -5.2700 N.am      1 UNK         0.0000
      4 N2          5.2300   -6.2650   -7.9170 N.pl3     1 UNK         0.0000
      5 N3          6.5130   -5.7100   -7.9630 N.2       1 UNK         0.0000
      6 N4          3.8550   -7.4130   -9.6400 N.ar      1 UNK         0.0000
      7 N5          4.8620   -7.6260  -11.7120 N.ar      1 UNK         0.0000
      8 N6          7.0310   -6.8180  -12.1640 N.pl3     1 UNK         0.0000
      9 C1          4.3540   -6.2780   -6.7430 C.3       1 UNK         0.0000
     10 C2          5.1480   -5.8410   -5.5090 C.3       1 UNK         0.0000
     11 C3          3.8140   -7.6950   -6.5220 C.3       1 UNK         0.0000
     12 C4          4.2270   -5.8220   -4.2880 C.3       1 UNK         0.0000
     13 C5          3.6840   -7.2290   -4.0410 C.3       1 UNK         0.0000
     14 C6          4.9190   -6.7870   -9.1370 C.ar      1 UNK         0.0000
     15 C7          6.0290   -6.5650   -9.9730 C.ar      1 UNK         0.0000
     16 C8          1.7780   -8.1760   -5.2520 C.2       1 UNK         0.0000
     17 C9          7.0270   -5.8710   -9.1600 C.2       1 UNK         0.0000
     18 C10         5.9680   -7.0120  -11.3020 C.ar      1 UNK         0.0000
     19 C11         8.3680   -5.4240   -9.6060 C.ar      1 UNK         0.0000
     20 C12         1.1880   -8.7570   -6.4680 C.2       1 UNK         0.0000
     21 C13         3.8430   -7.8140  -10.8930 C.ar      1 UNK         0.0000
     22 C14         8.4880   -4.3670  -10.5080 C.ar      1 UNK         0.0000
     23 C15         9.5120   -6.0570   -9.1220 C.ar      1 UNK         0.0000
     24 C16         0.8370  -10.0400   -6.4890 C.2       1 UNK         0.0000
     25 C17         9.7360   -3.9540  -10.9220 C.ar      1 UNK         0.0000
     26 C18        10.7580   -5.6430   -9.5430 C.ar      1 UNK         0.0000
     27 C19        10.8740   -4.5890  -10.4420 C.ar      1 UNK         0.0000
     28 C20        12.4670   -2.8980  -10.5910 C.ar      1 UNK         0.0000
     29 C21        12.7500   -2.5050   -9.2900 C.ar      1 UNK         0.0000
     30 C22        12.5640   -1.9790  -11.6270 C.ar      1 UNK         0.0000
     31 C23        13.1210   -1.2000   -9.0300 C.ar      1 UNK         0.0000
     32 C24        12.9310   -0.6750  -11.3590 C.ar      1 UNK         0.0000
     33 C25        13.2120   -0.2860  -10.0630 C.ar      1 UNK         0.0000
     34 H1          3.5220   -5.5930   -6.9020 H         1 UNK         0.0000
     35 H2          5.9660   -6.5420   -5.3370 H         1 UNK         0.0000
     36 H3          5.5550   -4.8430   -5.6730 H         1 UNK         0.0000
     37 H4          4.6460   -8.3960   -6.4530 H         1 UNK         0.0000
     38 H5          3.1670   -7.9720   -7.3540 H         1 UNK         0.0000
     39 H6          4.7870   -5.4900   -3.4140 H         1 UNK         0.0000
     40 H7          3.3970   -5.1410   -4.4690 H         1 UNK         0.0000
     41 H8          2.9490   -7.1990   -3.2360 H         1 UNK         0.0000
     42 H9          4.5040   -7.8910   -3.7660 H         1 UNK         0.0000
     43 H10         1.0420   -8.1420   -7.3430 H         1 UNK         0.0000
     44 H11         2.9640   -8.3170  -11.2680 H         1 UNK         0.0000
     45 H12         7.6030   -3.8720  -10.8810 H         1 UNK         0.0000
     46 H13         9.4220   -6.8730   -8.4200 H         1 UNK         0.0000
     47 H14         6.9260   -6.2470  -12.9420 H         1 UNK         0.0000
     48 H15         7.8810   -7.2520  -11.9920 H         1 UNK         0.0000
     49 H16         0.4070  -10.4670   -7.3830 H         1 UNK         0.0000
     50 H17         0.9820  -10.6540   -5.6120 H         1 UNK         0.0000
     51 H18         9.8300   -3.1350  -11.6200 H         1 UNK         0.0000
     52 H19        11.6450   -6.1350   -9.1720 H         1 UNK         0.0000
     53 H20        12.6790   -3.2180   -8.4830 H         1 UNK         0.0000
     54 H21        12.3510   -2.2830  -12.6410 H         1 UNK         0.0000
     55 H22        13.3410   -0.8930   -8.0170 H         1 UNK         0.0000
     56 H23        13.0020    0.0420  -12.1650 H         1 UNK         0.0000
     57 H24        13.5020    0.7340   -9.8560 H         1 UNK         0.0000
@<TRIPOS>BOND
     1    1   16 2
     2    2   27 1
     3    2   28 1
     4    3   11 1
     5    3   13 1
     6    3   16 am
     7    4    5 1
     8    4    9 1
     9    4   14 1
    10    5   17 2
    11    6   14 ar
    12    6   21 ar
    13    7   18 ar
    14    7   21 ar
    15    8   18 1
    16    8   47 1
    17    8   48 1
    18    9   10 1
    19    9   11 1
    20    9   34 1
    21   10   12 1
    22   10   35 1
    23   10   36 1
    24   11   37 1
    25   11   38 1
    26   12   13 1
    27   12   39 1
    28   12   40 1
    29   13   41 1
    30   13   42 1
    31   14   15 ar
    32   15   17 1
    33   15   18 ar
    34   16   20 1
    35   17   19 1
    36   19   22 ar
    37   19   23 ar
    38   20   24 2
    39   20   43 1
    40   21   44 1
    41   22   25 ar
    42   22   45 1
    43   23   26 ar
    44   23   46 1
    45   24   49 1
    46   24   50 1
    47   25   27 ar
    48   25   51 1
    49   26   27 ar
    50   26   52 1
    51   28   29 ar
    52   28   30 ar
    53   29   31 ar
    54   29   53 1
    55   30   32 ar
    56   30   54 1
    57   31   33 ar
    58   31   55 1
    59   32   33 ar
    60   32   56 1
    61   33   57 1
