@<TRIPOS>MOLECULE
24821094
   57    61     0     0     0
SMALL
NO_CHARGES

@<TRIPOS>ATOM
      1 O1         12.7680   -1.1180  -10.9140 O.2       1 UNK         0.0000
      2 O2          3.4580   -8.5340   -8.2270 O.3       1 UNK         0.0000
      3 N1         11.5330   -2.9150  -11.3370 N.am      1 UNK         0.0000
      4 N2          8.5770   -4.7550  -12.6650 N.pl3     1 UNK         0.0000
      5 N3          7.9940   -5.2810  -11.5070 N.2       1 UNK         0.0000
      6 N4          7.9010   -4.8530  -15.0550 N.ar      1 UNK         0.0000
      7 N5          5.9450   -6.0140  -15.4720 N.ar      1 UNK         0.0000
      8 N6          4.6790   -7.0330  -13.7630 N.pl3     1 UNK         0.0000
      9 C1          9.8170   -3.9770  -12.7100 C.3       1 UNK         0.0000
     10 C2         10.9280   -4.8230  -13.3360 C.3       1 UNK         0.0000
     11 C3         10.2240   -3.5800  -11.2870 C.3       1 UNK         0.0000
     12 C4         12.2160   -4.0000  -13.4140 C.3       1 UNK         0.0000
     13 C5         12.6480   -3.6010  -12.0040 C.3       1 UNK         0.0000
     14 C6          7.8140   -5.0840  -13.7450 C.ar      1 UNK         0.0000
     15 C7          6.7210   -5.8290  -13.2640 C.ar      1 UNK         0.0000
     16 C8         11.7050   -1.6960  -10.7880 C.2       1 UNK         0.0000
     17 C9          6.8890   -5.9190  -11.8140 C.2       1 UNK         0.0000
     18 C10         5.7700   -6.2960  -14.1850 C.ar      1 UNK         0.0000
     19 C11         5.9830   -6.6110  -10.8660 C.ar      1 UNK         0.0000
     20 C12        10.6090   -1.0660  -10.0370 C.2       1 UNK         0.0000
     21 C13         6.9860   -5.3110  -15.8800 C.ar      1 UNK         0.0000
     22 C14         4.7450   -6.0510  -10.5500 C.ar      1 UNK         0.0000
     23 C15         6.3640   -7.8230  -10.2930 C.ar      1 UNK         0.0000
     24 C16        10.8530   -0.0120   -9.2630 C.2       1 UNK         0.0000
     25 C17         3.9040   -6.6960   -9.6670 C.ar      1 UNK         0.0000
     26 C18         5.5210   -8.4610   -9.4080 C.ar      1 UNK         0.0000
     27 C19         4.2880   -7.9010   -9.0950 C.ar      1 UNK         0.0000
     28 C20         3.4100   -8.0840   -6.9460 C.ar      1 UNK         0.0000
     29 C21         2.4860   -8.6140   -6.0560 C.ar      1 UNK         0.0000
     30 C22         4.2880   -7.0960   -6.5230 C.ar      1 UNK         0.0000
     31 C23         2.4410   -8.1540   -4.7550 C.ar      1 UNK         0.0000
     32 C24         4.2340   -6.6360   -5.2220 C.ar      1 UNK         0.0000
     33 C25         3.3130   -7.1660   -4.3380 C.ar      1 UNK         0.0000
     34 H1          9.6620   -3.0790  -13.3080 H         1 UNK         0.0000
     35 H2         11.0990   -5.7090  -12.7240 H         1 UNK         0.0000
     36 H3         10.6310   -5.1280  -14.3400 H         1 UNK         0.0000
     37 H4         10.2910   -4.4710  -10.6640 H         1 UNK         0.0000
     38 H5          9.4830   -2.8960  -10.8730 H         1 UNK         0.0000
     39 H6         13.0010   -4.5960  -13.8810 H         1 UNK         0.0000
     40 H7         12.0390   -3.1030  -14.0060 H         1 UNK         0.0000
     41 H8         13.5060   -2.9310  -12.0620 H         1 UNK         0.0000
     42 H9         12.9160   -4.4940  -11.4400 H         1 UNK         0.0000
     43 H10         9.6070   -1.4620  -10.1110 H         1 UNK         0.0000
     44 H11         7.0890   -5.1060  -16.9360 H         1 UNK         0.0000
     45 H12         4.4450   -5.1150  -10.9960 H         1 UNK         0.0000
     46 H13         7.3200   -8.2610  -10.5400 H         1 UNK         0.0000
     47 H14         4.7980   -7.7520  -13.1220 H         1 UNK         0.0000
     48 H15         3.7940   -6.8310  -14.1070 H         1 UNK         0.0000
     49 H16        10.0490    0.4490   -8.7090 H         1 UNK         0.0000
     50 H17        11.8550    0.3840   -9.1910 H         1 UNK         0.0000
     51 H18         2.9450   -6.2640   -9.4220 H         1 UNK         0.0000
     52 H19         5.8170   -9.3980   -8.9600 H         1 UNK         0.0000
     53 H20         1.8050   -9.3860   -6.3810 H         1 UNK         0.0000
     54 H21         5.0120   -6.6850   -7.2120 H         1 UNK         0.0000
     55 H22         1.7220   -8.5660   -4.0610 H         1 UNK         0.0000
     56 H23         4.9150   -5.8640   -4.8940 H         1 UNK         0.0000
     57 H24         3.2750   -6.8070   -3.3190 H         1 UNK         0.0000
@<TRIPOS>BOND
     1    1   16 2
     2    2   27 1
     3    2   28 1
     4    3   11 1
     5    3   13 1
     6    3   16 am
     7    4    5 1
     8    4    9 1
     9    4   14 1
    10    5   17 2
    11    6   14 ar
    12    6   21 ar
    13    7   18 ar
    14    7   21 ar
    15    8   18 1
    16    8   47 1
    17    8   48 1
    18    9   10 1
    19    9   11 1
    20    9   34 1
    21   10   12 1
    22   10   35 1
    23   10   36 1
    24   11   37 1
    25   11   38 1
    26   12   13 1
    27   12   39 1
    28   12   40 1
    29   13   41 1
    30   13   42 1
    31   14   15 ar
    32   15   17 1
    33   15   18 ar
    34   16   20 1
    35   17   19 1
    36   19   22 ar
    37   19   23 ar
    38   20   24 2
    39   20   43 1
    40   21   44 1
    41   22   25 ar
    42   22   45 1
    43   23   26 ar
    44   23   46 1
    45   24   49 1
    46   24   50 1
    47   25   27 ar
    48   25   51 1
    49   26   27 ar
    50   26   52 1
    51   28   29 ar
    52   28   30 ar
    53   29   31 ar
    54   29   53 1
    55   30   32 ar
    56   30   54 1
    57   31   33 ar
    58   31   55 1
    59   32   33 ar
    60   32   56 1
    61   33   57 1
