@<TRIPOS>MOLECULE
24821094
   57    61     0     0     0
SMALL
NO_CHARGES

@<TRIPOS>ATOM
      1 O1          3.0790   -7.6500   -4.3970 O.2       1 UNK         0.0000
      2 O2         12.2660   -2.8770  -11.2970 O.3       1 UNK         0.0000
      3 N1          3.6190   -7.2810   -6.5190 N.am      1 UNK         0.0000
      4 N2          5.9440   -6.9590   -9.4150 N.pl3     1 UNK         0.0000
      5 N3          7.1580   -6.2860   -9.2460 N.2       1 UNK         0.0000
      6 N4          4.5190   -7.3390  -11.4160 N.ar      1 UNK         0.0000
      7 N5          5.3320   -6.4280  -13.3810 N.ar      1 UNK         0.0000
      8 N6          7.3600   -5.2280  -13.4870 N.pl3     1 UNK         0.0000
      9 C1          5.1940   -7.6320   -8.3520 C.3       1 UNK         0.0000
     10 C2          4.1650   -8.5800   -8.9720 C.3       1 UNK         0.0000
     11 C3          4.4680   -6.5860   -7.4980 C.3       1 UNK         0.0000
     12 C4          3.4040   -9.3080   -7.8620 C.3       1 UNK         0.0000
     13 C5          2.6620   -8.2850   -7.0030 C.3       1 UNK         0.0000
     14 C6          5.5640   -6.8880  -10.7220 C.ar      1 UNK         0.0000
     15 C7          6.5600   -6.1590  -11.3980 C.ar      1 UNK         0.0000
     16 C8          3.7210   -7.0060   -5.2040 C.2       1 UNK         0.0000
     17 C9          7.5630   -5.8010  -10.3960 C.2       1 UNK         0.0000
     18 C10         6.4100   -5.9380  -12.7770 C.ar      1 UNK         0.0000
     19 C11         8.8060   -5.0280  -10.6340 C.ar      1 UNK         0.0000
     20 C12         4.6100   -5.9270   -4.7450 C.2       1 UNK         0.0000
     21 C13         4.4220   -7.1070  -12.7070 C.ar      1 UNK         0.0000
     22 C14        10.0440   -5.6700  -10.6060 C.ar      1 UNK         0.0000
     23 C15         8.7390   -3.6600  -10.8920 C.ar      1 UNK         0.0000
     24 C16         5.5140   -6.1680   -3.7990 C.2       1 UNK         0.0000
     25 C17        11.1980   -4.9480  -10.8270 C.ar      1 UNK         0.0000
     26 C18         9.8960   -2.9430  -11.1080 C.ar      1 UNK         0.0000
     27 C19        11.1280   -3.5850  -11.0790 C.ar      1 UNK         0.0000
     28 C20        12.6000   -1.9130  -10.4000 C.ar      1 UNK         0.0000
     29 C21        12.6420   -0.5820  -10.7930 C.ar      1 UNK         0.0000
     30 C22        12.8930   -2.2550   -9.0870 C.ar      1 UNK         0.0000
     31 C23        12.9800    0.3960   -9.8780 C.ar      1 UNK         0.0000
     32 C24        13.2360   -1.2740   -8.1790 C.ar      1 UNK         0.0000
     33 C25        13.2780    0.0510   -8.5720 C.ar      1 UNK         0.0000
     34 H1          5.8810   -8.1990   -7.7240 H         1 UNK         0.0000
     35 H2          3.4640   -8.0080   -9.5800 H         1 UNK         0.0000
     36 H3          4.6770   -9.3100   -9.6000 H         1 UNK         0.0000
     37 H4          3.8480   -5.9590   -8.1370 H         1 UNK         0.0000
     38 H5          5.1990   -5.9710   -6.9750 H         1 UNK         0.0000
     39 H6          2.6880  -10.0000   -8.3050 H         1 UNK         0.0000
     40 H7          4.1080   -9.8610   -7.2410 H         1 UNK         0.0000
     41 H8          2.2030   -8.7900   -6.1530 H         1 UNK         0.0000
     42 H9          1.8930   -7.7990   -7.6010 H         1 UNK         0.0000
     43 H10         4.5270   -4.9400   -5.1740 H         1 UNK         0.0000
     44 H11         3.5610   -7.4860  -13.2380 H         1 UNK         0.0000
     45 H12        10.0980   -6.7310  -10.4110 H         1 UNK         0.0000
     46 H13         7.7810   -3.1610  -10.9190 H         1 UNK         0.0000
     47 H14         7.8790   -5.6710  -14.1780 H         1 UNK         0.0000
     48 H15         7.5060   -4.2890  -13.2970 H         1 UNK         0.0000
     49 H16         6.1640   -5.3750   -3.4590 H         1 UNK         0.0000
     50 H17         5.5970   -7.1560   -3.3710 H         1 UNK         0.0000
     51 H18        12.1570   -5.4440  -10.8060 H         1 UNK         0.0000
     52 H19         9.8460   -1.8820  -11.3030 H         1 UNK         0.0000
     53 H20        12.4100   -0.3120  -11.8120 H         1 UNK         0.0000
     54 H21        12.8560   -3.2890   -8.7780 H         1 UNK         0.0000
     55 H22        13.0140    1.4320  -10.1820 H         1 UNK         0.0000
     56 H23        13.4690   -1.5410   -7.1580 H         1 UNK         0.0000
     57 H24        13.5430    0.8180   -7.8590 H         1 UNK         0.0000
@<TRIPOS>BOND
     1    1   16 2
     2    2   27 1
     3    2   28 1
     4    3   11 1
     5    3   13 1
     6    3   16 am
     7    4    5 1
     8    4    9 1
     9    4   14 1
    10    5   17 2
    11    6   14 ar
    12    6   21 ar
    13    7   18 ar
    14    7   21 ar
    15    8   18 1
    16    8   47 1
    17    8   48 1
    18    9   10 1
    19    9   11 1
    20    9   34 1
    21   10   12 1
    22   10   35 1
    23   10   36 1
    24   11   37 1
    25   11   38 1
    26   12   13 1
    27   12   39 1
    28   12   40 1
    29   13   41 1
    30   13   42 1
    31   14   15 ar
    32   15   17 1
    33   15   18 ar
    34   16   20 1
    35   17   19 1
    36   19   22 ar
    37   19   23 ar
    38   20   24 2
    39   20   43 1
    40   21   44 1
    41   22   25 ar
    42   22   45 1
    43   23   26 ar
    44   23   46 1
    45   24   49 1
    46   24   50 1
    47   25   27 ar
    48   25   51 1
    49   26   27 ar
    50   26   52 1
    51   28   29 ar
    52   28   30 ar
    53   29   31 ar
    54   29   53 1
    55   30   32 ar
    56   30   54 1
    57   31   33 ar
    58   31   55 1
    59   32   33 ar
    60   32   56 1
    61   33   57 1
