@<TRIPOS>MOLECULE
24821094
   57    61     0     0     0
SMALL
NO_CHARGES

@<TRIPOS>ATOM
      1 O1          0.1610  -11.5580   -9.8400 O.2       1 UNK         0.0000
      2 O2         10.1970   -4.9150  -11.6010 O.3       1 UNK         0.0000
      3 N1          1.7550  -10.4810   -8.7300 N.am      1 UNK         0.0000
      4 N2          3.9190   -7.5640   -7.8930 N.pl3     1 UNK         0.0000
      5 N3          4.8250   -7.3590   -8.9400 N.2       1 UNK         0.0000
      6 N4          3.9070   -6.7910   -5.5310 N.ar      1 UNK         0.0000
      7 N5          5.7120   -5.4790   -4.9240 N.ar      1 UNK         0.0000
      8 N6          7.4390   -4.9110   -6.4260 N.pl3     1 UNK         0.0000
      9 C1          2.6880   -8.3520   -7.9830 C.3       1 UNK         0.0000
     10 C2          2.2030   -8.7040   -6.5740 C.3       1 UNK         0.0000
     11 C3          2.9620   -9.6440   -8.7610 C.3       1 UNK         0.0000
     12 C4          0.8990   -9.5000   -6.6650 C.3       1 UNK         0.0000
     13 C5          1.1500  -10.7990   -7.4290 C.3       1 UNK         0.0000
     14 C6          4.3640   -6.9220   -6.7770 C.ar      1 UNK         0.0000
     15 C7          5.5730   -6.2900   -7.1220 C.ar      1 UNK         0.0000
     16 C8          1.2100  -10.9430   -9.8730 C.2       1 UNK         0.0000
     17 C9          5.8170   -6.6040   -8.5290 C.2       1 UNK         0.0000
     18 C10         6.2480   -5.5490   -6.1380 C.ar      1 UNK         0.0000
     19 C11         6.9740   -6.1580   -9.3410 C.ar      1 UNK         0.0000
     20 C12         1.8820  -10.7010  -11.1580 C.2       1 UNK         0.0000
     21 C13         4.5740   -6.0870   -4.6430 C.ar      1 UNK         0.0000
     22 C14         7.0560   -4.8340   -9.7730 C.ar      1 UNK         0.0000
     23 C15         7.9860   -7.0590   -9.6690 C.ar      1 UNK         0.0000
     24 C16         1.8720  -11.6400  -12.1000 C.2       1 UNK         0.0000
     25 C17         8.1330   -4.4230  -10.5280 C.ar      1 UNK         0.0000
     26 C18         9.0590   -6.6430  -10.4290 C.ar      1 UNK         0.0000
     27 C19         9.1370   -5.3230  -10.8580 C.ar      1 UNK         0.0000
     28 C20        11.0570   -4.0190  -11.0500 C.ar      1 UNK         0.0000
     29 C21        11.7490   -4.3420   -9.8900 C.ar      1 UNK         0.0000
     30 C22        11.2490   -2.7810  -11.6460 C.ar      1 UNK         0.0000
     31 C23        12.6220   -3.4290   -9.3320 C.ar      1 UNK         0.0000
     32 C24        12.1190   -1.8700  -11.0810 C.ar      1 UNK         0.0000
     33 C25        12.8070   -2.1940   -9.9270 C.ar      1 UNK         0.0000
     34 H1          1.9210   -7.7740   -8.4980 H         1 UNK         0.0000
     35 H2          2.9600   -9.3040   -6.0690 H         1 UNK         0.0000
     36 H3          2.0310   -7.7880   -6.0100 H         1 UNK         0.0000
     37 H4          3.7900  -10.1800   -8.2990 H         1 UNK         0.0000
     38 H5          3.2110   -9.4010   -9.7940 H         1 UNK         0.0000
     39 H6          0.5420   -9.7310   -5.6610 H         1 UNK         0.0000
     40 H7          0.1490   -8.9100   -7.1910 H         1 UNK         0.0000
     41 H8          0.2040  -11.3180   -7.5840 H         1 UNK         0.0000
     42 H9          1.8280  -11.4310   -6.8560 H         1 UNK         0.0000
     43 H10         2.3860   -9.7630  -11.3360 H         1 UNK         0.0000
     44 H11         4.1750   -6.0030   -3.6430 H         1 UNK         0.0000
     45 H12         6.2760   -4.1330   -9.5160 H         1 UNK         0.0000
     46 H13         7.9280   -8.0840   -9.3320 H         1 UNK         0.0000
     47 H14         7.4550   -3.9490   -6.5510 H         1 UNK         0.0000
     48 H15         8.2590   -5.4240   -6.5020 H         1 UNK         0.0000
     49 H16         2.3700  -11.4650  -13.0430 H         1 UNK         0.0000
     50 H17         1.3670  -12.5780  -11.9220 H         1 UNK         0.0000
     51 H18         8.1980   -3.3980  -10.8640 H         1 UNK         0.0000
     52 H19         9.8410   -7.3410  -10.6870 H         1 UNK         0.0000
     53 H20        11.6040   -5.3060   -9.4260 H         1 UNK         0.0000
     54 H21        10.7150   -2.5290  -12.5520 H         1 UNK         0.0000
     55 H22        13.1610   -3.6790   -8.4300 H         1 UNK         0.0000
     56 H23        12.2650   -0.9050  -11.5440 H         1 UNK         0.0000
     57 H24        13.4900   -1.4810   -9.4880 H         1 UNK         0.0000
@<TRIPOS>BOND
     1    1   16 2
     2    2   27 1
     3    2   28 1
     4    3   11 1
     5    3   13 1
     6    3   16 am
     7    4    5 1
     8    4    9 1
     9    4   14 1
    10    5   17 2
    11    6   14 ar
    12    6   21 ar
    13    7   18 ar
    14    7   21 ar
    15    8   18 1
    16    8   47 1
    17    8   48 1
    18    9   10 1
    19    9   11 1
    20    9   34 1
    21   10   12 1
    22   10   35 1
    23   10   36 1
    24   11   37 1
    25   11   38 1
    26   12   13 1
    27   12   39 1
    28   12   40 1
    29   13   41 1
    30   13   42 1
    31   14   15 ar
    32   15   17 1
    33   15   18 ar
    34   16   20 1
    35   17   19 1
    36   19   22 ar
    37   19   23 ar
    38   20   24 2
    39   20   43 1
    40   21   44 1
    41   22   25 ar
    42   22   45 1
    43   23   26 ar
    44   23   46 1
    45   24   49 1
    46   24   50 1
    47   25   27 ar
    48   25   51 1
    49   26   27 ar
    50   26   52 1
    51   28   29 ar
    52   28   30 ar
    53   29   31 ar
    54   29   53 1
    55   30   32 ar
    56   30   54 1
    57   31   33 ar
    58   31   55 1
    59   32   33 ar
    60   32   56 1
    61   33   57 1
