@<TRIPOS>MOLECULE
24821094
   57    61     0     0     0
SMALL
NO_CHARGES

@<TRIPOS>ATOM
      1 O1          6.3590   -8.5500  -17.5260 O.2       1 UNK         0.0000
      2 O2          4.4600   -5.0220   -4.8810 O.3       1 UNK         0.0000
      3 N1          6.0230   -8.0080  -15.3980 N.am      1 UNK         0.0000
      4 N2          6.5040   -5.9910  -12.3010 N.pl3     1 UNK         0.0000
      5 N3          5.6740   -5.9150  -11.1770 N.2       1 UNK         0.0000
      6 N4          8.9530   -5.6760  -12.5830 N.ar      1 UNK         0.0000
      7 N5         10.1030   -5.1720  -10.6400 N.ar      1 UNK         0.0000
      8 N6          9.0400   -4.9700   -8.5450 N.pl3     1 UNK         0.0000
      9 C1          6.0570   -6.2910  -13.6640 C.3       1 UNK         0.0000
     10 C2          4.5270   -6.3010  -13.7090 C.3       1 UNK         0.0000
     11 C3          6.5860   -7.6660  -14.0840 C.3       1 UNK         0.0000
     12 C4          4.0590   -6.5820  -15.1390 C.3       1 UNK         0.0000
     13 C5          4.5660   -7.9550  -15.5770 C.3       1 UNK         0.0000
     14 C6          7.7900   -5.7370  -11.9330 C.ar      1 UNK         0.0000
     15 C7          7.7800   -5.5010  -10.5450 C.ar      1 UNK         0.0000
     16 C8          6.8290   -8.3570  -16.4210 C.2       1 UNK         0.0000
     17 C9          6.3900   -5.6330  -10.1140 C.2       1 UNK         0.0000
     18 C10         8.9960   -5.2110   -9.9050 C.ar      1 UNK         0.0000
     19 C11         5.8800   -5.4720   -8.7310 C.ar      1 UNK         0.0000
     20 C12         8.2760   -8.5040  -16.1990 C.2       1 UNK         0.0000
     21 C13        10.0670   -5.4000  -11.9400 C.ar      1 UNK         0.0000
     22 C14         5.6690   -4.1960   -8.2080 C.ar      1 UNK         0.0000
     23 C15         5.6060   -6.5950   -7.9520 C.ar      1 UNK         0.0000
     24 C16         8.8510   -9.6950  -16.3330 C.2       1 UNK         0.0000
     25 C17         5.1950   -4.0490   -6.9220 C.ar      1 UNK         0.0000
     26 C18         5.1370   -6.4420   -6.6650 C.ar      1 UNK         0.0000
     27 C19         4.9270   -5.1700   -6.1470 C.ar      1 UNK         0.0000
     28 C20         5.2470   -4.3740   -3.9820 C.ar      1 UNK         0.0000
     29 C21         6.4360   -4.9500   -3.5560 C.ar      1 UNK         0.0000
     30 C22         4.8660   -3.1330   -3.4920 C.ar      1 UNK         0.0000
     31 C23         7.2330   -4.2890   -2.6430 C.ar      1 UNK         0.0000
     32 C24         5.6650   -2.4790   -2.5750 C.ar      1 UNK         0.0000
     33 C25         6.8490   -3.0550   -2.1530 C.ar      1 UNK         0.0000
     34 H1          6.4360   -5.5310  -14.3470 H         1 UNK         0.0000
     35 H2          4.1490   -7.0780  -13.0440 H         1 UNK         0.0000
     36 H3          4.1470   -5.3320  -13.3860 H         1 UNK         0.0000
     37 H4          6.2820   -8.4140  -13.3520 H         1 UNK         0.0000
     38 H5          7.6720   -7.6350  -14.1500 H         1 UNK         0.0000
     39 H6          2.9690   -6.5670  -15.1750 H         1 UNK         0.0000
     40 H7          4.4560   -5.8190  -15.8070 H         1 UNK         0.0000
     41 H8          4.3210   -8.1140  -16.6270 H         1 UNK         0.0000
     42 H9          4.0950   -8.7270  -14.9690 H         1 UNK         0.0000
     43 H10         8.8690   -7.6450  -15.9260 H         1 UNK         0.0000
     44 H11        10.9900   -5.3580  -12.4990 H         1 UNK         0.0000
     45 H12         5.8760   -3.3240   -8.8110 H         1 UNK         0.0000
     46 H13         5.7630   -7.5850   -8.3560 H         1 UNK         0.0000
     47 H14         8.8550   -5.6890   -7.9200 H         1 UNK         0.0000
     48 H15         9.2560   -4.0840   -8.2150 H         1 UNK         0.0000
     49 H16         9.9130   -9.8040  -16.1670 H         1 UNK         0.0000
     50 H17         8.2560  -10.5540  -16.6080 H         1 UNK         0.0000
     51 H18         5.0310   -3.0620   -6.5170 H         1 UNK         0.0000
     52 H19         4.9270   -7.3110   -6.0590 H         1 UNK         0.0000
     53 H20         6.7370   -5.9140   -3.9380 H         1 UNK         0.0000
     54 H21         3.9440   -2.6800   -3.8260 H         1 UNK         0.0000
     55 H22         8.1590   -4.7360   -2.3100 H         1 UNK         0.0000
     56 H23         5.3660   -1.5140   -2.1900 H         1 UNK         0.0000
     57 H24         7.4740   -2.5400   -1.4370 H         1 UNK         0.0000
@<TRIPOS>BOND
     1    1   16 2
     2    2   27 1
     3    2   28 1
     4    3   11 1
     5    3   13 1
     6    3   16 am
     7    4    5 1
     8    4    9 1
     9    4   14 1
    10    5   17 2
    11    6   14 ar
    12    6   21 ar
    13    7   18 ar
    14    7   21 ar
    15    8   18 1
    16    8   47 1
    17    8   48 1
    18    9   10 1
    19    9   11 1
    20    9   34 1
    21   10   12 1
    22   10   35 1
    23   10   36 1
    24   11   37 1
    25   11   38 1
    26   12   13 1
    27   12   39 1
    28   12   40 1
    29   13   41 1
    30   13   42 1
    31   14   15 ar
    32   15   17 1
    33   15   18 ar
    34   16   20 1
    35   17   19 1
    36   19   22 ar
    37   19   23 ar
    38   20   24 2
    39   20   43 1
    40   21   44 1
    41   22   25 ar
    42   22   45 1
    43   23   26 ar
    44   23   46 1
    45   24   49 1
    46   24   50 1
    47   25   27 ar
    48   25   51 1
    49   26   27 ar
    50   26   52 1
    51   28   29 ar
    52   28   30 ar
    53   29   31 ar
    54   29   53 1
    55   30   32 ar
    56   30   54 1
    57   31   33 ar
    58   31   55 1
    59   32   33 ar
    60   32   56 1
    61   33   57 1
