@<TRIPOS>MOLECULE
10302451
   70    75     0     0     0
SMALL
NO_CHARGES

@<TRIPOS>ATOM
      1 Cl1        13.0830   -5.1640   -9.1950 Cl        1 UNK         0.0000
      2 O1          9.2440   -4.4120  -11.4250 O.3       1 UNK         0.0000
      3 O2          6.6420   -6.8540   -9.3200 O.3       1 UNK         0.0000
      4 O3          8.6640   -5.3070  -16.0550 O.3       1 UNK         0.0000
      5 O4         11.3490   -0.2980   -9.9760 O.3       1 UNK         0.0000
      6 O5         12.6520    0.6180   -8.3660 O.3       1 UNK         0.0000
      7 N1          5.8180   -7.2760  -15.0790 N.3       1 UNK         0.0000
      8 N2          4.8720   -7.9720  -12.4850 N.3       1 UNK         0.0000
      9 N3         11.3460   -3.2290  -10.6350 N.pl3     1 UNK         0.0000
     10 N4         12.5980   -3.0900  -14.5470 N.ar      1 UNK         0.0000
     11 N5         12.9080   -2.6410  -12.2970 N.ar      1 UNK         0.0000
     12 C1          5.6810   -6.2550  -14.0310 C.3       1 UNK         0.0000
     13 C2          6.1280   -8.5890  -14.4940 C.3       1 UNK         0.0000
     14 C3          4.5620   -6.6600  -13.0700 C.3       1 UNK         0.0000
     15 C4          5.0090   -8.9940  -13.5330 C.3       1 UNK         0.0000
     16 C5          6.8340   -6.8860  -16.0650 C.3       1 UNK         0.0000
     17 C6          8.1670   -5.3160  -11.1710 C.3       1 UNK         0.0000
     18 C7          8.7150   -6.5990  -10.5370 C.3       1 UNK         0.0000
     19 C8          7.1700   -4.6680  -10.2060 C.3       1 UNK         0.0000
     20 C9          7.2610   -5.4390  -15.8130 C.3       1 UNK         0.0000
     21 C10         3.8570   -8.3630  -11.4990 C.3       1 UNK         0.0000
     22 C11         7.5470   -7.5290  -10.1960 C.3       1 UNK         0.0000
     23 C12         6.0620   -5.6730   -9.8780 C.3       1 UNK         0.0000
     24 C13         9.7010   -4.3410  -12.7010 C.ar      1 UNK         0.0000
     25 C14         9.4170   -4.7900  -15.0500 C.ar      1 UNK         0.0000
     26 C15        10.9410   -3.7380  -12.9750 C.ar      1 UNK         0.0000
     27 C16         8.9540   -4.8580  -13.7360 C.ar      1 UNK         0.0000
     28 C17        11.4100   -3.6690  -14.3100 C.ar      1 UNK         0.0000
     29 C18        10.6340   -4.2080  -15.3430 C.ar      1 UNK         0.0000
     30 C19        11.7490   -3.1910  -11.9540 C.ar      1 UNK         0.0000
     31 C20        12.1490   -2.6570   -9.6400 C.ar      1 UNK         0.0000
     32 C21        13.3070   -2.5980  -13.5580 C.ar      1 UNK         0.0000
     33 C22        12.0940   -1.2870   -9.4020 C.ar      1 UNK         0.0000
     34 C23        12.8900   -0.7270   -8.4090 C.ar      1 UNK         0.0000
     35 C24        13.0070   -3.4570   -8.8940 C.ar      1 UNK         0.0000
     36 C25        13.7430   -1.5320   -7.6690 C.ar      1 UNK         0.0000
     37 C26        13.8000   -2.8910   -7.9120 C.ar      1 UNK         0.0000
     38 C27        11.4030    0.8090   -9.0580 C.3       1 UNK         0.0000
     39 H1          5.4390   -5.2950  -14.4880 H         1 UNK         0.0000
     40 H2          6.6190   -6.1700  -13.4820 H         1 UNK         0.0000
     41 H3          7.0710   -8.5300  -13.9500 H         1 UNK         0.0000
     42 H4          6.2120   -9.3300  -15.2880 H         1 UNK         0.0000
     43 H5          3.6180   -6.7190  -13.6150 H         1 UNK         0.0000
     44 H6          4.4780   -5.9190  -12.2760 H         1 UNK         0.0000
     45 H7          5.2510   -9.9540  -13.0760 H         1 UNK         0.0000
     46 H8          4.0710   -9.0790  -14.0820 H         1 UNK         0.0000
     47 H9          7.7010   -7.5410  -15.9720 H         1 UNK         0.0000
     48 H10         6.4190   -6.9720  -17.0680 H         1 UNK         0.0000
     49 H11         7.6640   -5.5580  -12.1080 H         1 UNK         0.0000
     50 H12         9.3830   -7.0960  -11.2400 H         1 UNK         0.0000
     51 H13         9.2610   -6.3510   -9.6270 H         1 UNK         0.0000
     52 H14         7.6850   -4.3820   -9.2890 H         1 UNK         0.0000
     53 H15         6.7340   -3.7850  -10.6720 H         1 UNK         0.0000
     54 H16         6.7130   -4.7760  -16.4810 H         1 UNK         0.0000
     55 H17         7.0450   -5.1710  -14.7790 H         1 UNK         0.0000
     56 H18         3.9560   -7.7420  -10.6090 H         1 UNK         0.0000
     57 H19         2.8630   -8.2260  -11.9270 H         1 UNK         0.0000
     58 H20         3.9950   -9.4100  -11.2290 H         1 UNK         0.0000
     59 H21         7.0260   -7.8100  -11.1130 H         1 UNK         0.0000
     60 H22         7.9270   -8.4250   -9.7060 H         1 UNK         0.0000
     61 H23         5.5220   -5.9290  -10.7900 H         1 UNK         0.0000
     62 H24         5.3720   -5.2320   -9.1580 H         1 UNK         0.0000
     63 H25         8.0000   -5.3210  -13.5280 H         1 UNK         0.0000
     64 H26        10.9840   -4.1650  -16.3630 H         1 UNK         0.0000
     65 H27        10.5070   -3.6540  -10.3970 H         1 UNK         0.0000
     66 H28        14.2570   -2.1380  -13.7830 H         1 UNK         0.0000
     67 H29        14.3640   -1.0960   -6.9020 H         1 UNK         0.0000
     68 H30        14.4650   -3.5140   -7.3330 H         1 UNK         0.0000
     69 H31        10.5680    0.7670   -8.3580 H         1 UNK         0.0000
     70 H32        11.4050    1.7570   -9.5950 H         1 UNK         0.0000
@<TRIPOS>BOND
     1    1   35 1
     2    2   17 1
     3    2   24 1
     4    3   22 1
     5    3   23 1
     6    4   20 1
     7    4   25 1
     8    5   33 1
     9    5   38 1
    10    6   34 1
    11    6   38 1
    12    7   12 1
    13    7   13 1
    14    7   16 1
    15    8   14 1
    16    8   15 1
    17    8   21 1
    18    9   30 1
    19    9   31 1
    20    9   65 1
    21   10   28 ar
    22   10   32 ar
    23   11   30 ar
    24   11   32 ar
    25   12   14 1
    26   12   39 1
    27   12   40 1
    28   13   15 1
    29   13   41 1
    30   13   42 1
    31   14   43 1
    32   14   44 1
    33   15   45 1
    34   15   46 1
    35   16   20 1
    36   16   47 1
    37   16   48 1
    38   17   18 1
    39   17   19 1
    40   17   49 1
    41   18   22 1
    42   18   50 1
    43   18   51 1
    44   19   23 1
    45   19   52 1
    46   19   53 1
    47   20   54 1
    48   20   55 1
    49   21   56 1
    50   21   57 1
    51   21   58 1
    52   22   59 1
    53   22   60 1
    54   23   61 1
    55   23   62 1
    56   24   26 ar
    57   24   27 ar
    58   25   27 ar
    59   25   29 ar
    60   26   28 ar
    61   26   30 ar
    62   27   63 1
    63   28   29 ar
    64   29   64 1
    65   31   33 ar
    66   31   35 ar
    67   32   66 1
    68   33   34 ar
    69   34   36 ar
    70   35   37 ar
    71   36   37 ar
    72   36   67 1
    73   37   68 1
    74   38   69 1
    75   38   70 1
