@<TRIPOS>MOLECULE
10302451
   70    75     0     0     0
SMALL
NO_CHARGES

@<TRIPOS>ATOM
      1 Cl1         9.9430   -6.2080   -9.6360 Cl        1 UNK         0.0000
      2 O1          7.0400   -4.6360   -9.2300 O.3       1 UNK         0.0000
      3 O2          5.6640   -4.5970   -5.3220 O.3       1 UNK         0.0000
      4 O3          4.1630   -7.5330  -11.6610 O.3       1 UNK         0.0000
      5 O4         10.7750   -1.1030  -10.3780 O.3       1 UNK         0.0000
      6 O5         12.9510   -1.1840   -9.7530 O.3       1 UNK         0.0000
      7 N1          3.3460   -9.0370   -8.4050 N.3       1 UNK         0.0000
      8 N2          1.8420   -8.1520   -6.1550 N.3       1 UNK         0.0000
      9 N3          8.9770   -3.5090  -10.4220 N.pl3     1 UNK         0.0000
     10 N4          7.8030   -5.4050  -13.8740 N.ar      1 UNK         0.0000
     11 N5          9.2210   -3.9900  -12.7150 N.ar      1 UNK         0.0000
     12 C1          1.9260   -9.3860   -8.2680 C.3       1 UNK         0.0000
     13 C2          3.6290   -7.7390   -7.7760 C.3       1 UNK         0.0000
     14 C3          1.5590   -9.4500   -6.7840 C.3       1 UNK         0.0000
     15 C4          3.2630   -7.8020   -6.2920 C.3       1 UNK         0.0000
     16 C5          3.7560   -9.0380   -9.8160 C.3       1 UNK         0.0000
     17 C6          6.3370   -5.0430   -8.0540 C.3       1 UNK         0.0000
     18 C7          7.3350   -5.2970   -6.9210 C.3       1 UNK         0.0000
     19 C8          5.3680   -3.9350   -7.6280 C.3       1 UNK         0.0000
     20 C9          3.4320   -7.6810  -10.4430 C.3       1 UNK         0.0000
     21 C10         1.4330   -8.1490   -4.7450 C.3       1 UNK         0.0000
     22 C11         6.5680   -5.6550   -5.6450 C.3       1 UNK         0.0000
     23 C12         4.6770   -4.3460   -6.3250 C.3       1 UNK         0.0000
     24 C13         6.6920   -5.2390  -10.3950 C.ar      1 UNK         0.0000
     25 C14         5.2400   -6.7060  -11.6370 C.ar      1 UNK         0.0000
     26 C15         7.4410   -5.0080  -11.5610 C.ar      1 UNK         0.0000
     27 C16         5.6030   -6.0810  -10.4440 C.ar      1 UNK         0.0000
     28 C17         7.0710   -5.6420  -12.7730 C.ar      1 UNK         0.0000
     29 C18         5.9650   -6.4970  -12.7940 C.ar      1 UNK         0.0000
     30 C19         8.5670   -4.1540  -11.5710 C.ar      1 UNK         0.0000
     31 C20        10.3220   -3.5520  -10.0370 C.ar      1 UNK         0.0000
     32 C21         8.8400   -4.6020  -13.8240 C.ar      1 UNK         0.0000
     33 C22        11.0890   -2.3910  -10.0490 C.ar      1 UNK         0.0000
     34 C23        12.4230   -2.4400   -9.6610 C.ar      1 UNK         0.0000
     35 C24        10.8950   -4.7570   -9.6460 C.ar      1 UNK         0.0000
     36 C25        12.9870   -3.6460   -9.2710 C.ar      1 UNK         0.0000
     37 C26        12.2240   -4.7990   -9.2650 C.ar      1 UNK         0.0000
     38 C27        11.8190   -0.2940   -9.8060 C.3       1 UNK         0.0000
     39 H1          1.7440  -10.3570   -8.7300 H         1 UNK         0.0000
     40 H2          1.3160   -8.6290   -8.7610 H         1 UNK         0.0000
     41 H3          3.0390   -6.9630   -8.2640 H         1 UNK         0.0000
     42 H4          4.6890   -7.5080   -7.8790 H         1 UNK         0.0000
     43 H5          2.1500  -10.2270   -6.2960 H         1 UNK         0.0000
     44 H6          0.4990   -9.6810   -6.6800 H         1 UNK         0.0000
     45 H7          3.4440   -6.8320   -5.8300 H         1 UNK         0.0000
     46 H8          3.8730   -8.5590   -5.7990 H         1 UNK         0.0000
     47 H9          4.8280   -9.2220   -9.8820 H         1 UNK         0.0000
     48 H10         3.2190   -9.8220  -10.3490 H         1 UNK         0.0000
     49 H11         5.7780   -5.9570   -8.2600 H         1 UNK         0.0000
     50 H12         7.9930   -6.1220   -7.1940 H         1 UNK         0.0000
     51 H13         7.9280   -4.3980   -6.7500 H         1 UNK         0.0000
     52 H14         5.9210   -3.0090   -7.4700 H         1 UNK         0.0000
     53 H15         4.6190   -3.7870   -8.4060 H         1 UNK         0.0000
     54 H16         2.3640   -7.6220  -10.6500 H         1 UNK         0.0000
     55 H17         3.7110   -6.8860   -9.7520 H         1 UNK         0.0000
     56 H18         0.3730   -7.9060   -4.6740 H         1 UNK         0.0000
     57 H19         1.6070   -9.1350   -4.3140 H         1 UNK         0.0000
     58 H20         2.0140   -7.4070   -4.1990 H         1 UNK         0.0000
     59 H21         6.0080   -6.5770   -5.8050 H         1 UNK         0.0000
     60 H22         7.2720   -5.7960   -4.8250 H         1 UNK         0.0000
     61 H23         4.0920   -5.2500   -6.4930 H         1 UNK         0.0000
     62 H24         4.0180   -3.5430   -5.9940 H         1 UNK         0.0000
     63 H25         5.0250   -6.2610   -9.5490 H         1 UNK         0.0000
     64 H26         5.6760   -6.9890  -13.7110 H         1 UNK         0.0000
     65 H27         8.3320   -3.0280   -9.8800 H         1 UNK         0.0000
     66 H28         9.4060   -4.4330  -14.7280 H         1 UNK         0.0000
     67 H29        14.0230   -3.6850   -8.9740 H         1 UNK         0.0000
     68 H30        12.6670   -5.7360   -8.9610 H         1 UNK         0.0000
     69 H31        11.5440    0.0340   -8.8030 H         1 UNK         0.0000
     70 H32        12.0360    0.5630  -10.4420 H         1 UNK         0.0000
@<TRIPOS>BOND
     1    1   35 1
     2    2   17 1
     3    2   24 1
     4    3   22 1
     5    3   23 1
     6    4   20 1
     7    4   25 1
     8    5   33 1
     9    5   38 1
    10    6   34 1
    11    6   38 1
    12    7   12 1
    13    7   13 1
    14    7   16 1
    15    8   14 1
    16    8   15 1
    17    8   21 1
    18    9   30 1
    19    9   31 1
    20    9   65 1
    21   10   28 ar
    22   10   32 ar
    23   11   30 ar
    24   11   32 ar
    25   12   14 1
    26   12   39 1
    27   12   40 1
    28   13   15 1
    29   13   41 1
    30   13   42 1
    31   14   43 1
    32   14   44 1
    33   15   45 1
    34   15   46 1
    35   16   20 1
    36   16   47 1
    37   16   48 1
    38   17   18 1
    39   17   19 1
    40   17   49 1
    41   18   22 1
    42   18   50 1
    43   18   51 1
    44   19   23 1
    45   19   52 1
    46   19   53 1
    47   20   54 1
    48   20   55 1
    49   21   56 1
    50   21   57 1
    51   21   58 1
    52   22   59 1
    53   22   60 1
    54   23   61 1
    55   23   62 1
    56   24   26 ar
    57   24   27 ar
    58   25   27 ar
    59   25   29 ar
    60   26   28 ar
    61   26   30 ar
    62   27   63 1
    63   28   29 ar
    64   29   64 1
    65   31   33 ar
    66   31   35 ar
    67   32   66 1
    68   33   34 ar
    69   34   36 ar
    70   35   37 ar
    71   36   37 ar
    72   36   67 1
    73   37   68 1
    74   38   69 1
    75   38   70 1
