@<TRIPOS>MOLECULE
10302451
   70    75     0     0     0
SMALL
NO_CHARGES

@<TRIPOS>ATOM
      1 Cl1         9.3610   -6.7060   -9.2020 Cl        1 UNK         0.0000
      2 O1          6.5450   -4.7870   -8.5430 O.3       1 UNK         0.0000
      3 O2          6.0290   -4.5120   -4.4410 O.3       1 UNK         0.0000
      4 O3          2.9480   -7.4170  -10.1940 O.3       1 UNK         0.0000
      5 O4         10.2760   -1.8160  -10.7950 O.3       1 UNK         0.0000
      6 O5         12.5280   -1.9950  -10.6400 O.3       1 UNK         0.0000
      7 N1          2.7320   -8.9080   -8.0660 N.3       1 UNK         0.0000
      8 N2          2.2060   -8.5610   -5.2890 N.3       1 UNK         0.0000
      9 N3          8.3880   -4.0550  -10.1270 N.pl3     1 UNK         0.0000
     10 N4          6.4180   -6.0300  -13.1450 N.ar      1 UNK         0.0000
     11 N5          8.1830   -4.7490  -12.3690 N.ar      1 UNK         0.0000
     12 C1          3.8210   -8.6010   -7.1280 C.3       1 UNK         0.0000
     13 C2          1.6700   -9.6760   -7.4010 C.3       1 UNK         0.0000
     14 C3          3.2680   -7.7920   -5.9530 C.3       1 UNK         0.0000
     15 C4          1.1160   -8.8670   -6.2260 C.3       1 UNK         0.0000
     16 C5          3.2380   -9.6210   -9.2460 C.3       1 UNK         0.0000
     17 C6          6.1090   -5.1200   -7.2230 C.3       1 UNK         0.0000
     18 C7          7.3260   -5.3160   -6.3150 C.3       1 UNK         0.0000
     19 C8          5.2470   -3.9820   -6.6670 C.3       1 UNK         0.0000
     20 C9          2.9210   -8.8110  -10.5050 C.3       1 UNK         0.0000
     21 C10         1.7000   -7.8490   -4.1090 C.3       1 UNK         0.0000
     22 C11         6.8480   -5.5940   -4.8870 C.3       1 UNK         0.0000
     23 C12         4.8500   -4.3110   -5.2250 C.3       1 UNK         0.0000
     24 C13         5.9320   -5.4240   -9.5730 C.ar      1 UNK         0.0000
     25 C14         4.1140   -6.7570  -10.4210 C.ar      1 UNK         0.0000
     26 C15         6.5010   -5.3990  -10.8580 C.ar      1 UNK         0.0000
     27 C16         4.7490   -6.0990   -9.3670 C.ar      1 UNK         0.0000
     28 C17         5.8550   -6.0670  -11.9270 C.ar      1 UNK         0.0000
     29 C18         4.6570   -6.7510  -11.6900 C.ar      1 UNK         0.0000
     30 C19         7.7120   -4.7230  -11.1280 C.ar      1 UNK         0.0000
     31 C20         9.7810   -4.1590  -10.0330 C.ar      1 UNK         0.0000
     32 C21         7.5450   -5.3850  -13.3370 C.ar      1 UNK         0.0000
     33 C22        10.5860   -3.0740  -10.3670 C.ar      1 UNK         0.0000
     34 C23        11.9680   -3.1830  -10.2660 C.ar      1 UNK         0.0000
     35 C24        10.3620   -5.3500   -9.6110 C.ar      1 UNK         0.0000
     36 C25        12.5400   -4.3740   -9.8440 C.ar      1 UNK         0.0000
     37 C26        11.7380   -5.4520   -9.5180 C.ar      1 UNK         0.0000
     38 C27        11.4610   -1.0290  -10.5730 C.3       1 UNK         0.0000
     39 H1          4.5890   -8.0200   -7.6400 H         1 UNK         0.0000
     40 H2          4.2550   -9.5300   -6.7580 H         1 UNK         0.0000
     41 H3          2.0790  -10.6180   -7.0340 H         1 UNK         0.0000
     42 H4          0.8690   -9.8800   -8.1120 H         1 UNK         0.0000
     43 H5          2.8590   -6.8500   -6.3210 H         1 UNK         0.0000
     44 H6          4.0680   -7.5880   -5.2430 H         1 UNK         0.0000
     45 H7          0.3490   -9.4480   -5.7140 H         1 UNK         0.0000
     46 H8          0.6830   -7.9380   -6.5970 H         1 UNK         0.0000
     47 H9          4.3170   -9.7480   -9.1590 H         1 UNK         0.0000
     48 H10         2.7610  -10.5980   -9.3130 H         1 UNK         0.0000
     49 H11         5.5230   -6.0400   -7.2530 H         1 UNK         0.0000
     50 H12         7.9150   -6.1600   -6.6730 H         1 UNK         0.0000
     51 H13         7.9380   -4.4140   -6.3250 H         1 UNK         0.0000
     52 H14         5.8180   -3.0520   -6.6840 H         1 UNK         0.0000
     53 H15         4.3510   -3.8720   -7.2750 H         1 UNK         0.0000
     54 H16         3.6640   -9.0270  -11.2720 H         1 UNK         0.0000
     55 H17         1.9320   -9.0830  -10.8720 H         1 UNK         0.0000
     56 H18         1.0310   -7.0500   -4.4260 H         1 UNK         0.0000
     57 H19         1.1560   -8.5450   -3.4700 H         1 UNK         0.0000
     58 H20         2.5370   -7.4250   -3.5530 H         1 UNK         0.0000
     59 H21         6.2710   -6.5190   -4.8700 H         1 UNK         0.0000
     60 H22         7.7110   -5.6920   -4.2280 H         1 UNK         0.0000
     61 H23         4.2470   -5.2190   -5.2130 H         1 UNK         0.0000
     62 H24         4.2730   -3.4850   -4.8090 H         1 UNK         0.0000
     63 H25         4.3100   -6.1200   -8.3810 H         1 UNK         0.0000
     64 H26         4.1580   -7.2670  -12.4960 H         1 UNK         0.0000
     65 H27         7.8970   -3.5150   -9.4880 H         1 UNK         0.0000
     66 H28         7.9700   -5.3740  -14.3300 H         1 UNK         0.0000
     67 H29        13.6130   -4.4600   -9.7710 H         1 UNK         0.0000
     68 H30        12.1880   -6.3780   -9.1900 H         1 UNK         0.0000
     69 H31        11.4310   -0.5610   -9.5890 H         1 UNK         0.0000
     70 H32        11.5770   -0.2770  -11.3520 H         1 UNK         0.0000
@<TRIPOS>BOND
     1    1   35 1
     2    2   17 1
     3    2   24 1
     4    3   22 1
     5    3   23 1
     6    4   20 1
     7    4   25 1
     8    5   33 1
     9    5   38 1
    10    6   34 1
    11    6   38 1
    12    7   12 1
    13    7   13 1
    14    7   16 1
    15    8   14 1
    16    8   15 1
    17    8   21 1
    18    9   30 1
    19    9   31 1
    20    9   65 1
    21   10   28 ar
    22   10   32 ar
    23   11   30 ar
    24   11   32 ar
    25   12   14 1
    26   12   39 1
    27   12   40 1
    28   13   15 1
    29   13   41 1
    30   13   42 1
    31   14   43 1
    32   14   44 1
    33   15   45 1
    34   15   46 1
    35   16   20 1
    36   16   47 1
    37   16   48 1
    38   17   18 1
    39   17   19 1
    40   17   49 1
    41   18   22 1
    42   18   50 1
    43   18   51 1
    44   19   23 1
    45   19   52 1
    46   19   53 1
    47   20   54 1
    48   20   55 1
    49   21   56 1
    50   21   57 1
    51   21   58 1
    52   22   59 1
    53   22   60 1
    54   23   61 1
    55   23   62 1
    56   24   26 ar
    57   24   27 ar
    58   25   27 ar
    59   25   29 ar
    60   26   28 ar
    61   26   30 ar
    62   27   63 1
    63   28   29 ar
    64   29   64 1
    65   31   33 ar
    66   31   35 ar
    67   32   66 1
    68   33   34 ar
    69   34   36 ar
    70   35   37 ar
    71   36   37 ar
    72   36   67 1
    73   37   68 1
    74   38   69 1
    75   38   70 1
