@<TRIPOS>MOLECULE
10302451
   70    75     0     0     0
SMALL
NO_CHARGES

@<TRIPOS>ATOM
      1 Cl1         6.5710   -4.1960  -11.3690 Cl        1 UNK         0.0000
      2 O1          5.7360   -5.5700   -6.8400 O.3       1 UNK         0.0000
      3 O2          6.6520   -3.7850   -3.2150 O.3       1 UNK         0.0000
      4 O3          2.3420   -8.8230   -6.1460 O.3       1 UNK         0.0000
      5 O4         10.0380   -6.3630   -8.1170 O.3       1 UNK         0.0000
      6 O5         11.8420   -5.7360   -9.3340 O.3       1 UNK         0.0000
      7 N1          0.0920  -11.0590   -7.8020 N.3       1 UNK         0.0000
      8 N2         -0.4770  -13.1140   -9.6890 N.3       1 UNK         0.0000
      9 N3          7.2090   -5.7220   -8.9000 N.pl3     1 UNK         0.0000
     10 N4          5.1200   -9.0840  -10.0040 N.ar      1 UNK         0.0000
     11 N5          6.7820   -7.5150  -10.3680 N.ar      1 UNK         0.0000
     12 C1         -0.9100  -12.0930   -7.5070 C.3       1 UNK         0.0000
     13 C2          1.1480  -11.5880   -8.6780 C.3       1 UNK         0.0000
     14 C3         -1.5330  -12.5850   -8.8150 C.3       1 UNK         0.0000
     15 C4          0.5250  -12.0800   -9.9860 C.3       1 UNK         0.0000
     16 C5          0.6610  -10.5070   -6.5660 C.3       1 UNK         0.0000
     17 C6          5.6520   -5.2380   -5.4520 C.3       1 UNK         0.0000
     18 C7          6.9600   -5.6230   -4.7540 C.3       1 UNK         0.0000
     19 C8          5.4280   -3.7310   -5.2990 C.3       1 UNK         0.0000
     20 C9          1.0960   -9.0610   -6.8060 C.3       1 UNK         0.0000
     21 C10        -1.0450  -13.6660  -10.9260 C.3       1 UNK         0.0000
     22 C11         6.8920   -5.1910   -3.2860 C.3       1 UNK         0.0000
     23 C12         5.4190   -3.3730   -3.8100 C.3       1 UNK         0.0000
     24 C13         5.0760   -6.6840   -7.2470 C.ar      1 UNK         0.0000
     25 C14         3.3590   -8.3380   -6.9050 C.ar      1 UNK         0.0000
     26 C15         5.4440   -7.3260   -8.4420 C.ar      1 UNK         0.0000
     27 C16         4.0410   -7.1930   -6.4940 C.ar      1 UNK         0.0000
     28 C17         4.7500   -8.4890   -8.8590 C.ar      1 UNK         0.0000
     29 C18         3.7060   -8.9890   -8.0730 C.ar      1 UNK         0.0000
     30 C19         6.4960   -6.8490   -9.2550 C.ar      1 UNK         0.0000
     31 C20         8.3290   -5.3380   -9.6490 C.ar      1 UNK         0.0000
     32 C21         6.1060   -8.5970  -10.7190 C.ar      1 UNK         0.0000
     33 C22         9.6080   -5.6710   -9.2120 C.ar      1 UNK         0.0000
     34 C23        10.7140   -5.2910   -9.9620 C.ar      1 UNK         0.0000
     35 C24         8.1650   -4.6180  -10.8270 C.ar      1 UNK         0.0000
     36 C25        10.5410   -4.5730  -11.1370 C.ar      1 UNK         0.0000
     37 C26         9.2700   -4.2390  -11.5650 C.ar      1 UNK         0.0000
     38 C27        11.3940   -6.7470   -8.4110 C.3       1 UNK         0.0000
     39 H1         -1.6880  -11.6730   -6.8680 H         1 UNK         0.0000
     40 H2         -0.4310  -12.9280   -6.9960 H         1 UNK         0.0000
     41 H3          1.6510  -12.4170   -8.1800 H         1 UNK         0.0000
     42 H4          1.8700  -10.8000   -8.8930 H         1 UNK         0.0000
     43 H5         -2.0360  -11.7550   -9.3130 H         1 UNK         0.0000
     44 H6         -2.2560  -13.3720   -8.6000 H         1 UNK         0.0000
     45 H7          1.3020  -12.4990  -10.6240 H         1 UNK         0.0000
     46 H8          0.0450  -11.2450  -10.4970 H         1 UNK         0.0000
     47 H9         -0.0910  -10.5340   -5.7770 H         1 UNK         0.0000
     48 H10         1.5230  -11.1010   -6.2660 H         1 UNK         0.0000
     49 H11         4.8220   -5.7790   -4.9960 H         1 UNK         0.0000
     50 H12         7.0990   -6.7020   -4.8100 H         1 UNK         0.0000
     51 H13         7.7950   -5.1210   -5.2420 H         1 UNK         0.0000
     52 H14         6.2330   -3.1900   -5.7990 H         1 UNK         0.0000
     53 H15         4.4720   -3.4570   -5.7440 H         1 UNK         0.0000
     54 H16         1.2130   -8.8890   -7.8750 H         1 UNK         0.0000
     55 H17         0.3400   -8.3830   -6.4100 H         1 UNK         0.0000
     56 H18        -2.1100  -13.8490  -10.7870 H         1 UNK         0.0000
     57 H19        -0.9030  -12.9540  -11.7400 H         1 UNK         0.0000
     58 H20        -0.5430  -14.6020  -11.1710 H         1 UNK         0.0000
     59 H21         6.0820   -5.7250   -2.7880 H         1 UNK         0.0000
     60 H22         7.8360   -5.4240   -2.7940 H         1 UNK         0.0000
     61 H23         4.5900   -3.8820   -3.3190 H         1 UNK         0.0000
     62 H24         5.3030   -2.2950   -3.6960 H         1 UNK         0.0000
     63 H25         3.7560   -6.7010   -5.5750 H         1 UNK         0.0000
     64 H26         3.1730   -9.8760   -8.3780 H         1 UNK         0.0000
     65 H27         6.9360   -5.1970   -8.1320 H         1 UNK         0.0000
     66 H28         6.3780   -9.1000  -11.6350 H         1 UNK         0.0000
     67 H29        11.4010   -4.2730  -11.7170 H         1 UNK         0.0000
     68 H30         9.1400   -3.6810  -12.4800 H         1 UNK         0.0000
     69 H31        11.4210   -7.7300   -8.8790 H         1 UNK         0.0000
     70 H32        12.0030   -6.7370   -7.5070 H         1 UNK         0.0000
@<TRIPOS>BOND
     1    1   35 1
     2    2   17 1
     3    2   24 1
     4    3   22 1
     5    3   23 1
     6    4   20 1
     7    4   25 1
     8    5   33 1
     9    5   38 1
    10    6   34 1
    11    6   38 1
    12    7   12 1
    13    7   13 1
    14    7   16 1
    15    8   14 1
    16    8   15 1
    17    8   21 1
    18    9   30 1
    19    9   31 1
    20    9   65 1
    21   10   28 ar
    22   10   32 ar
    23   11   30 ar
    24   11   32 ar
    25   12   14 1
    26   12   39 1
    27   12   40 1
    28   13   15 1
    29   13   41 1
    30   13   42 1
    31   14   43 1
    32   14   44 1
    33   15   45 1
    34   15   46 1
    35   16   20 1
    36   16   47 1
    37   16   48 1
    38   17   18 1
    39   17   19 1
    40   17   49 1
    41   18   22 1
    42   18   50 1
    43   18   51 1
    44   19   23 1
    45   19   52 1
    46   19   53 1
    47   20   54 1
    48   20   55 1
    49   21   56 1
    50   21   57 1
    51   21   58 1
    52   22   59 1
    53   22   60 1
    54   23   61 1
    55   23   62 1
    56   24   26 ar
    57   24   27 ar
    58   25   27 ar
    59   25   29 ar
    60   26   28 ar
    61   26   30 ar
    62   27   63 1
    63   28   29 ar
    64   29   64 1
    65   31   33 ar
    66   31   35 ar
    67   32   66 1
    68   33   34 ar
    69   34   36 ar
    70   35   37 ar
    71   36   37 ar
    72   36   67 1
    73   37   68 1
    74   38   69 1
    75   38   70 1
