@<TRIPOS>MOLECULE
10302451
   70    75     0     0     0
SMALL
NO_CHARGES

@<TRIPOS>ATOM
      1 Cl1        -6.0710    1.1660    2.6150 Cl        1 UNK         0.0000
      2 O1         -7.9170   -1.1800    4.3940 O.3       1 UNK         0.0000
      3 O2         -7.2870   -4.0340    1.4590 O.3       1 UNK         0.0000
      4 O3        -12.5980   -0.3890    4.6190 O.3       1 UNK         0.0000
      5 O4         -4.1690    1.1240    7.4810 O.3       1 UNK         0.0000
      6 O5         -2.2480    2.1900    6.9320 O.3       1 UNK         0.0000
      7 N1        -12.1890    1.0220    1.5630 N.3       1 UNK         0.0000
      8 N2         -9.5210    1.2210    0.5870 N.3       1 UNK         0.0000
      9 N3         -6.3200    0.4600    5.4920 N.pl3     1 UNK         0.0000
     10 N4         -9.5780    2.6680    6.6690 N.ar      1 UNK         0.0000
     11 N5         -7.2940    2.3100    6.5760 N.ar      1 UNK         0.0000
     12 C1        -11.4350   -0.1830    1.1880 C.3       1 UNK         0.0000
     13 C2        -11.2860    2.0730    2.0540 C.3       1 UNK         0.0000
     14 C3        -10.4230    0.1700    0.0960 C.3       1 UNK         0.0000
     15 C4        -10.2750    2.4260    0.9620 C.3       1 UNK         0.0000
     16 C5        -13.2220    0.7080    2.5590 C.3       1 UNK         0.0000
     17 C6         -8.2030   -2.2090    3.4460 C.3       1 UNK         0.0000
     18 C7         -7.7920   -1.7450    2.0460 C.3       1 UNK         0.0000
     19 C8         -7.4120   -3.4710    3.8060 C.3       1 UNK         0.0000
     20 C9        -12.8890   -0.6210    3.2390 C.3       1 UNK         0.0000
     21 C10        -8.4870    1.5360   -0.4070 C.3       1 UNK         0.0000
     22 C11        -8.0270   -2.8830    1.0490 C.3       1 UNK         0.0000
     23 C12        -7.6620   -4.5430    2.7410 C.3       1 UNK         0.0000
     24 C13        -8.9610   -0.4150    4.8060 C.ar      1 UNK         0.0000
     25 C14       -11.3320   -0.0050    4.9260 C.ar      1 UNK         0.0000
     26 C15        -8.7300    0.7590    5.5420 C.ar      1 UNK         0.0000
     27 C16       -10.2540   -0.7860    4.5070 C.ar      1 UNK         0.0000
     28 C17        -9.8250    1.5500    5.9680 C.ar      1 UNK         0.0000
     29 C18       -11.1280    1.1550    5.6460 C.ar      1 UNK         0.0000
     30 C19        -7.4260    1.1870    5.8790 C.ar      1 UNK         0.0000
     31 C20        -5.1290    1.1180    5.1580 C.ar      1 UNK         0.0000
     32 C21        -8.3460    3.0180    6.9530 C.ar      1 UNK         0.0000
     33 C22        -4.1850    1.3930    6.1430 C.ar      1 UNK         0.0000
     34 C23        -3.0040    2.0430    5.8040 C.ar      1 UNK         0.0000
     35 C24        -4.8920    1.5020    3.8440 C.ar      1 UNK         0.0000
     36 C25        -2.7750    2.4220    4.4890 C.ar      1 UNK         0.0000
     37 C26        -3.7170    2.1520    3.5150 C.ar      1 UNK         0.0000
     38 C27        -2.7940    1.2590    7.8850 C.3       1 UNK         0.0000
     39 H1        -12.1230   -0.9410    0.8160 H         1 UNK         0.0000
     40 H2        -10.9070   -0.5670    2.0620 H         1 UNK         0.0000
     41 H3        -10.7580    1.7140    2.9370 H         1 UNK         0.0000
     42 H4        -11.8670    2.9590    2.3130 H         1 UNK         0.0000
     43 H5        -10.9530    0.5300   -0.7870 H         1 UNK         0.0000
     44 H6         -9.8430   -0.7150   -0.1630 H         1 UNK         0.0000
     45 H7         -9.5870    3.1850    1.3340 H         1 UNK         0.0000
     46 H8        -10.8030    2.8110    0.0880 H         1 UNK         0.0000
     47 H9        -13.2570    1.5000    3.3070 H         1 UNK         0.0000
     48 H10       -14.1900    0.6310    2.0650 H         1 UNK         0.0000
     49 H11        -9.2710   -2.4320    3.4580 H         1 UNK         0.0000
     50 H12        -8.3900   -0.8800    1.7590 H         1 UNK         0.0000
     51 H13        -6.7360   -1.4740    2.0460 H         1 UNK         0.0000
     52 H14        -6.3480   -3.2350    3.8420 H         1 UNK         0.0000
     53 H15        -7.7380   -3.8400    4.7780 H         1 UNK         0.0000
     54 H16       -13.7400   -1.2950    3.1560 H         1 UNK         0.0000
     55 H17       -12.0210   -1.0690    2.7550 H         1 UNK         0.0000
     56 H18        -8.4780    2.6090   -0.5950 H         1 UNK         0.0000
     57 H19        -7.5130    1.2260   -0.0290 H         1 UNK         0.0000
     58 H20        -8.7020    1.0050   -1.3350 H         1 UNK         0.0000
     59 H21        -9.0900   -3.1250    1.0180 H         1 UNK         0.0000
     60 H22        -7.6970   -2.5730    0.0570 H         1 UNK         0.0000
     61 H23        -8.7190   -4.8060    2.7330 H         1 UNK         0.0000
     62 H24        -7.0680   -5.4280    2.9700 H         1 UNK         0.0000
     63 H25       -10.4340   -1.6880    3.9420 H         1 UNK         0.0000
     64 H26       -11.9700    1.7530    5.9610 H         1 UNK         0.0000
     65 H27        -6.3670   -0.5090    5.4480 H         1 UNK         0.0000
     66 H28        -8.1830    3.9230    7.5190 H         1 UNK         0.0000
     67 H29        -1.8600    2.9310    4.2280 H         1 UNK         0.0000
     68 H30        -3.5340    2.4490    2.4930 H         1 UNK         0.0000
     69 H31        -2.2800    0.3000    7.8200 H         1 UNK         0.0000
     70 H32        -2.7260    1.6610    8.8950 H         1 UNK         0.0000
@<TRIPOS>BOND
     1    1   35 1
     2    2   17 1
     3    2   24 1
     4    3   22 1
     5    3   23 1
     6    4   20 1
     7    4   25 1
     8    5   33 1
     9    5   38 1
    10    6   34 1
    11    6   38 1
    12    7   12 1
    13    7   13 1
    14    7   16 1
    15    8   14 1
    16    8   15 1
    17    8   21 1
    18    9   30 1
    19    9   31 1
    20    9   65 1
    21   10   28 ar
    22   10   32 ar
    23   11   30 ar
    24   11   32 ar
    25   12   14 1
    26   12   39 1
    27   12   40 1
    28   13   15 1
    29   13   41 1
    30   13   42 1
    31   14   43 1
    32   14   44 1
    33   15   45 1
    34   15   46 1
    35   16   20 1
    36   16   47 1
    37   16   48 1
    38   17   18 1
    39   17   19 1
    40   17   49 1
    41   18   22 1
    42   18   50 1
    43   18   51 1
    44   19   23 1
    45   19   52 1
    46   19   53 1
    47   20   54 1
    48   20   55 1
    49   21   56 1
    50   21   57 1
    51   21   58 1
    52   22   59 1
    53   22   60 1
    54   23   61 1
    55   23   62 1
    56   24   26 ar
    57   24   27 ar
    58   25   27 ar
    59   25   29 ar
    60   26   28 ar
    61   26   30 ar
    62   27   63 1
    63   28   29 ar
    64   29   64 1
    65   31   33 ar
    66   31   35 ar
    67   32   66 1
    68   33   34 ar
    69   34   36 ar
    70   35   37 ar
    71   36   37 ar
    72   36   67 1
    73   37   68 1
    74   38   69 1
    75   38   70 1
