@<TRIPOS>MOLECULE
10302451
   70    75     0     0     0
SMALL
NO_CHARGES

@<TRIPOS>ATOM
      1 Cl1        10.7350   -1.4500  -10.7370 Cl        1 UNK         0.0000
      2 O1          7.1020   -4.9310   -8.8230 O.3       1 UNK         0.0000
      3 O2          5.6250   -4.5210   -4.9740 O.3       1 UNK         0.0000
      4 O3          3.8940   -7.5620  -11.1410 O.3       1 UNK         0.0000
      5 O4          9.8840   -6.2940   -8.9730 O.3       1 UNK         0.0000
      6 O5         12.0600   -6.6920   -8.4860 O.3       1 UNK         0.0000
      7 N1          3.1380   -9.1170   -7.8880 N.3       1 UNK         0.0000
      8 N2          1.7670   -8.2060   -5.5650 N.3       1 UNK         0.0000
      9 N3          8.8960   -3.7060  -10.1360 N.pl3     1 UNK         0.0000
     10 N4          7.2690   -5.2510  -13.5780 N.ar      1 UNK         0.0000
     11 N5          8.8450   -3.9630  -12.4760 N.ar      1 UNK         0.0000
     12 C1          1.6940   -9.3400   -7.7330 C.3       1 UNK         0.0000
     13 C2          3.5530   -7.8820   -7.2070 C.3       1 UNK         0.0000
     14 C3          1.3520   -9.4410   -6.2450 C.3       1 UNK         0.0000
     15 C4          3.2120   -7.9830   -5.7190 C.3       1 UNK         0.0000
     16 C5          3.5180   -9.0890   -9.3070 C.3       1 UNK         0.0000
     17 C6          6.3720   -5.2280   -7.6310 C.3       1 UNK         0.0000
     18 C7          7.3440   -5.3570   -6.4540 C.3       1 UNK         0.0000
     19 C8          5.3830   -4.0950   -7.3410 C.3       1 UNK         0.0000
     20 C9          3.2270   -7.7030   -9.8850 C.3       1 UNK         0.0000
     21 C10         1.3870   -8.2330   -4.1460 C.3       1 UNK         0.0000
     22 C11         6.5470   -5.5950   -5.1680 C.3       1 UNK         0.0000
     23 C12         4.6620   -4.3830   -6.0210 C.3       1 UNK         0.0000
     24 C13         6.6020   -5.4170   -9.9880 C.ar      1 UNK         0.0000
     25 C14         4.9810   -6.7470  -11.1730 C.ar      1 UNK         0.0000
     26 C15         7.2050   -5.0770  -11.2120 C.ar      1 UNK         0.0000
     27 C16         5.5000   -6.2440   -9.9800 C.ar      1 UNK         0.0000
     28 C17         6.6760   -5.5890  -12.4220 C.ar      1 UNK         0.0000
     29 C18         5.5600   -6.4320  -12.3860 C.ar      1 UNK         0.0000
     30 C19         8.3350   -4.2330  -11.2810 C.ar      1 UNK         0.0000
     31 C20        10.2400   -3.9590   -9.8330 C.ar      1 UNK         0.0000
     32 C21         8.3180   -4.4620  -13.5820 C.ar      1 UNK         0.0000
     33 C22        10.6140   -5.1840   -9.2910 C.ar      1 UNK         0.0000
     34 C23        11.9500   -5.4300   -8.9970 C.ar      1 UNK         0.0000
     35 C24        11.2010   -2.9820  -10.0680 C.ar      1 UNK         0.0000
     36 C25        12.9030   -4.4510   -9.2360 C.ar      1 UNK         0.0000
     37 C26        12.5270   -3.2320   -9.7690 C.ar      1 UNK         0.0000
     38 C27        10.8400   -7.3640   -8.8550 C.3       1 UNK         0.0000
     39 H1          1.4130  -10.2670   -8.2340 H         1 UNK         0.0000
     40 H2          1.1480   -8.5070   -8.1760 H         1 UNK         0.0000
     41 H3          3.0290   -7.0330   -7.6450 H         1 UNK         0.0000
     42 H4          4.6280   -7.7460   -7.3250 H         1 UNK         0.0000
     43 H5          1.8770  -10.2910   -5.8080 H         1 UNK         0.0000
     44 H6          0.2770   -9.5770   -6.1270 H         1 UNK         0.0000
     45 H7          3.4920   -7.0560   -5.2180 H         1 UNK         0.0000
     46 H8          3.7580   -8.8160   -5.2760 H         1 UNK         0.0000
     47 H9          4.5820   -9.3060   -9.4020 H         1 UNK         0.0000
     48 H10         2.9440   -9.8380   -9.8510 H         1 UNK         0.0000
     49 H11         5.8280   -6.1650   -7.7590 H         1 UNK         0.0000
     50 H12         8.0160   -6.1970   -6.6270 H         1 UNK         0.0000
     51 H13         7.9240   -4.4390   -6.3580 H         1 UNK         0.0000
     52 H14         5.9240   -3.1510   -7.2630 H         1 UNK         0.0000
     53 H15         4.6540   -4.0330   -8.1480 H         1 UNK         0.0000
     54 H16         2.1530   -7.5880  -10.0300 H         1 UNK         0.0000
     55 H17         3.5840   -6.9390   -9.1950 H         1 UNK         0.0000
     56 H18         2.2050   -7.8390   -3.5440 H         1 UNK         0.0000
     57 H19         0.4990   -7.6200   -3.9960 H         1 UNK         0.0000
     58 H20         1.1750   -9.2590   -3.8460 H         1 UNK         0.0000
     59 H21         5.9990   -6.5350   -5.2490 H         1 UNK         0.0000
     60 H22         7.2300   -5.6460   -4.3210 H         1 UNK         0.0000
     61 H23         4.0900   -5.3060   -6.1140 H         1 UNK         0.0000
     62 H24         3.9880   -3.5580   -5.7880 H         1 UNK         0.0000
     63 H25         5.0350   -6.5060   -9.0410 H         1 UNK         0.0000
     64 H26         5.1510   -6.8310  -13.3020 H         1 UNK         0.0000
     65 H27         8.3580   -3.1610   -9.5400 H         1 UNK         0.0000
     66 H28         8.7710   -4.2100  -14.5300 H         1 UNK         0.0000
     67 H29        13.9400   -4.6400   -9.0030 H         1 UNK         0.0000
     68 H30        13.2730   -2.4730   -9.9530 H         1 UNK         0.0000
     69 H31        10.9610   -7.8770   -9.8100 H         1 UNK         0.0000
     70 H32        10.5400   -8.0660   -8.0790 H         1 UNK         0.0000
@<TRIPOS>BOND
     1    1   35 1
     2    2   17 1
     3    2   24 1
     4    3   22 1
     5    3   23 1
     6    4   20 1
     7    4   25 1
     8    5   33 1
     9    5   38 1
    10    6   34 1
    11    6   38 1
    12    7   12 1
    13    7   13 1
    14    7   16 1
    15    8   14 1
    16    8   15 1
    17    8   21 1
    18    9   30 1
    19    9   31 1
    20    9   65 1
    21   10   28 ar
    22   10   32 ar
    23   11   30 ar
    24   11   32 ar
    25   12   14 1
    26   12   39 1
    27   12   40 1
    28   13   15 1
    29   13   41 1
    30   13   42 1
    31   14   43 1
    32   14   44 1
    33   15   45 1
    34   15   46 1
    35   16   20 1
    36   16   47 1
    37   16   48 1
    38   17   18 1
    39   17   19 1
    40   17   49 1
    41   18   22 1
    42   18   50 1
    43   18   51 1
    44   19   23 1
    45   19   52 1
    46   19   53 1
    47   20   54 1
    48   20   55 1
    49   21   56 1
    50   21   57 1
    51   21   58 1
    52   22   59 1
    53   22   60 1
    54   23   61 1
    55   23   62 1
    56   24   26 ar
    57   24   27 ar
    58   25   27 ar
    59   25   29 ar
    60   26   28 ar
    61   26   30 ar
    62   27   63 1
    63   28   29 ar
    64   29   64 1
    65   31   33 ar
    66   31   35 ar
    67   32   66 1
    68   33   34 ar
    69   34   36 ar
    70   35   37 ar
    71   36   37 ar
    72   36   67 1
    73   37   68 1
    74   38   69 1
    75   38   70 1
