@<TRIPOS>MOLECULE
24821094
   57    61     0     0     0
SMALL
NO_CHARGES

@<TRIPOS>ATOM
      1 O1         -9.0670   -3.9690   -1.4130 O.2       1 UNK         0.0000
      2 O2          3.0390   -4.6130   -0.8380 O.3       1 UNK         0.0000
      3 N1         -7.2690   -5.0490   -0.6810 N.am      1 UNK         0.0000
      4 N2         -4.2950   -5.5820    1.5000 N.pl3     1 UNK         0.0000
      5 N3         -3.2280   -5.2690    0.6500 N.2       1 UNK         0.0000
      6 N4         -4.3640   -6.4030    3.8450 N.ar      1 UNK         0.0000
      7 N5         -2.2950   -6.7080    4.8350 N.ar      1 UNK         0.0000
      8 N6         -0.2680   -6.2750    3.7120 N.pl3     1 UNK         0.0000
      9 C1         -5.7130   -5.4870    1.1480 C.3       1 UNK         0.0000
     10 C2         -6.3690   -6.8620    1.2960 C.3       1 UNK         0.0000
     11 C3         -5.8500   -5.0140   -0.3030 C.3       1 UNK         0.0000
     12 C4         -7.8590   -6.7570    0.9600 C.3       1 UNK         0.0000
     13 C5         -8.0200   -6.2970   -0.4880 C.3       1 UNK         0.0000
     14 C6         -3.8080   -5.9930    2.7050 C.ar      1 UNK         0.0000
     15 C7         -2.4040   -5.9350    2.6210 C.ar      1 UNK         0.0000
     16 C8         -7.8720   -3.9550   -1.1880 C.2       1 UNK         0.0000
     17 C9         -2.0900   -5.4580    1.2750 C.2       1 UNK         0.0000
     18 C10        -1.6490   -6.3130    3.7430 C.ar      1 UNK         0.0000
     19 C11        -0.7350   -5.2350    0.7160 C.ar      1 UNK         0.0000
     20 C12        -7.0840   -2.7450   -1.4700 C.2       1 UNK         0.0000
     21 C13        -3.6150   -6.7470    4.8700 C.ar      1 UNK         0.0000
     22 C14        -0.0180   -4.0880    1.0590 C.ar      1 UNK         0.0000
     23 C15        -0.1720   -6.1730   -0.1480 C.ar      1 UNK         0.0000
     24 C16        -7.5090   -1.8720   -2.3790 C.2       1 UNK         0.0000
     25 C17         1.2420   -3.8840    0.5370 C.ar      1 UNK         0.0000
     26 C18         1.0860   -5.9600   -0.6700 C.ar      1 UNK         0.0000
     27 C19         1.7980   -4.8170   -0.3270 C.ar      1 UNK         0.0000
     28 C20         4.0650   -5.3480   -0.3360 C.ar      1 UNK         0.0000
     29 C21         4.6760   -4.9690    0.8510 C.ar      1 UNK         0.0000
     30 C22         4.5010   -6.4820   -1.0060 C.ar      1 UNK         0.0000
     31 C23         5.7190   -5.7190    1.3590 C.ar      1 UNK         0.0000
     32 C24         5.5470   -7.2250   -0.4970 C.ar      1 UNK         0.0000
     33 C25         6.1540   -6.8460    0.6860 C.ar      1 UNK         0.0000
     34 H1         -6.2060   -4.7750    1.8100 H         1 UNK         0.0000
     35 H2         -5.8920   -7.5670    0.6150 H         1 UNK         0.0000
     36 H3         -6.2520   -7.2120    2.3210 H         1 UNK         0.0000
     37 H4         -5.2820   -5.6740   -0.9580 H         1 UNK         0.0000
     38 H5         -5.4740   -3.9950   -0.3920 H         1 UNK         0.0000
     39 H6         -8.3300   -7.7320    1.0870 H         1 UNK         0.0000
     40 H7         -8.3310   -6.0350    1.6240 H         1 UNK         0.0000
     41 H8         -9.0760   -6.1240   -0.6990 H         1 UNK         0.0000
     42 H9         -7.6330   -7.0640   -1.1580 H         1 UNK         0.0000
     43 H10        -6.1600   -2.5680   -0.9410 H         1 UNK         0.0000
     44 H11        -4.0990   -7.0750    5.7790 H         1 UNK         0.0000
     45 H12        -0.4500   -3.3630    1.7320 H         1 UNK         0.0000
     46 H13        -0.7230   -7.0650   -0.4110 H         1 UNK         0.0000
     47 H14         0.1900   -5.4400    3.5220 H         1 UNK         0.0000
     48 H15         0.2440   -7.0820    3.8800 H         1 UNK         0.0000
     49 H16        -6.9280   -0.9860   -2.5890 H         1 UNK         0.0000
     50 H17        -8.4340   -2.0500   -2.9080 H         1 UNK         0.0000
     51 H18         1.7980   -2.9960    0.8020 H         1 UNK         0.0000
     52 H19         1.5210   -6.6850   -1.3430 H         1 UNK         0.0000
     53 H20         4.3360   -4.0890    1.3770 H         1 UNK         0.0000
     54 H21         4.0230   -6.7830   -1.9280 H         1 UNK         0.0000
     55 H22         6.1960   -5.4250    2.2830 H         1 UNK         0.0000
     56 H23         5.8890   -8.1060   -1.0210 H         1 UNK         0.0000
     57 H24         6.9710   -7.4300    1.0850 H         1 UNK         0.0000
@<TRIPOS>BOND
     1    1   16 2
     2    2   27 1
     3    2   28 1
     4    3   11 1
     5    3   13 1
     6    3   16 am
     7    4    5 1
     8    4    9 1
     9    4   14 1
    10    5   17 2
    11    6   14 ar
    12    6   21 ar
    13    7   18 ar
    14    7   21 ar
    15    8   18 1
    16    8   47 1
    17    8   48 1
    18    9   10 1
    19    9   11 1
    20    9   34 1
    21   10   12 1
    22   10   35 1
    23   10   36 1
    24   11   37 1
    25   11   38 1
    26   12   13 1
    27   12   39 1
    28   12   40 1
    29   13   41 1
    30   13   42 1
    31   14   15 ar
    32   15   17 1
    33   15   18 ar
    34   16   20 1
    35   17   19 1
    36   19   22 ar
    37   19   23 ar
    38   20   24 2
    39   20   43 1
    40   21   44 1
    41   22   25 ar
    42   22   45 1
    43   23   26 ar
    44   23   46 1
    45   24   49 1
    46   24   50 1
    47   25   27 ar
    48   25   51 1
    49   26   27 ar
    50   26   52 1
    51   28   29 ar
    52   28   30 ar
    53   29   31 ar
    54   29   53 1
    55   30   32 ar
    56   30   54 1
    57   31   33 ar
    58   31   55 1
    59   32   33 ar
    60   32   56 1
    61   33   57 1
