@<TRIPOS>MOLECULE
24821094
   57    61     0     0     0
SMALL
NO_CHARGES

@<TRIPOS>ATOM
      1 O1          6.6490   -6.2030  -14.8130 O.2       1 UNK         0.0000
      2 O2          6.1570   -3.4530   -2.0050 O.3       1 UNK         0.0000
      3 N1          6.6680   -5.8480  -12.6210 N.am      1 UNK         0.0000
      4 N2          6.0560   -6.7070   -9.0460 N.pl3     1 UNK         0.0000
      5 N3          6.4840   -5.8910   -7.9940 N.2       1 UNK         0.0000
      6 N4          4.1820   -8.3290   -9.2330 N.ar      1 UNK         0.0000
      7 N5          2.8810   -8.5420   -7.3330 N.ar      1 UNK         0.0000
      8 N6          3.2930   -7.3170   -5.3610 N.pl3     1 UNK         0.0000
      9 C1          6.6850   -6.7850  -10.3660 C.3       1 UNK         0.0000
     10 C2          8.1480   -6.3490  -10.2620 C.3       1 UNK         0.0000
     11 C3          5.9480   -5.8580  -11.3400 C.3       1 UNK         0.0000
     12 C4          8.8150   -6.4610  -11.6350 C.3       1 UNK         0.0000
     13 C5          8.1030   -5.5360  -12.6210 C.3       1 UNK         0.0000
     14 C6          4.9660   -7.4230   -8.6490 C.ar      1 UNK         0.0000
     15 C7          4.6920   -7.0490   -7.3200 C.ar      1 UNK         0.0000
     16 C8          6.0250   -6.1260  -13.7720 C.2       1 UNK         0.0000
     17 C9          5.7010   -6.0570   -6.9540 C.2       1 UNK         0.0000
     18 C10         3.6040   -7.6480   -6.6660 C.ar      1 UNK         0.0000
     19 C11         5.8220   -5.3690   -5.6460 C.ar      1 UNK         0.0000
     20 C12         4.5690   -6.3370  -13.7680 C.2       1 UNK         0.0000
     21 C13         3.1730   -8.8630   -8.5800 C.ar      1 UNK         0.0000
     22 C14         5.0380   -4.2480   -5.3710 C.ar      1 UNK         0.0000
     23 C15         6.7150   -5.8430   -4.6860 C.ar      1 UNK         0.0000
     24 C16         3.9020   -6.3860  -14.9180 C.2       1 UNK         0.0000
     25 C17         5.1520   -3.6110   -4.1540 C.ar      1 UNK         0.0000
     26 C18         6.8290   -5.1990   -3.4730 C.ar      1 UNK         0.0000
     27 C19         6.0460   -4.0830   -3.2020 C.ar      1 UNK         0.0000
     28 C20         6.3770   -2.1120   -2.0070 C.ar      1 UNK         0.0000
     29 C21         5.3220   -1.2330   -1.8080 C.ar      1 UNK         0.0000
     30 C22         7.6600   -1.6190   -2.2010 C.ar      1 UNK         0.0000
     31 C23         5.5500    0.1290   -1.8100 C.ar      1 UNK         0.0000
     32 C24         7.8810   -0.2560   -2.2070 C.ar      1 UNK         0.0000
     33 C25         6.8280    0.6170   -2.0100 C.ar      1 UNK         0.0000
     34 H1          6.6360   -7.8100  -10.7340 H         1 UNK         0.0000
     35 H2          8.1950   -5.3150   -9.9180 H         1 UNK         0.0000
     36 H3          8.6690   -6.9910   -9.5510 H         1 UNK         0.0000
     37 H4          5.9180   -4.8490  -10.9300 H         1 UNK         0.0000
     38 H5          4.9330   -6.2230  -11.4940 H         1 UNK         0.0000
     39 H6          9.8630   -6.1720  -11.5550 H         1 UNK         0.0000
     40 H7          8.7480   -7.4890  -11.9890 H         1 UNK         0.0000
     41 H8          8.5100   -5.6890  -13.6210 H         1 UNK         0.0000
     42 H9          8.2520   -4.5000  -12.3180 H         1 UNK         0.0000
     43 H10         4.0420   -6.4490  -12.8330 H         1 UNK         0.0000
     44 H11         2.5590   -9.5950   -9.0840 H         1 UNK         0.0000
     45 H12         4.3410   -3.8820   -6.1100 H         1 UNK         0.0000
     46 H13         7.3200   -6.7140   -4.8950 H         1 UNK         0.0000
     47 H14         3.1680   -8.0170   -4.7000 H         1 UNK         0.0000
     48 H15         3.2000   -6.3860   -5.1050 H         1 UNK         0.0000
     49 H16         2.8320   -6.5370  -14.9160 H         1 UNK         0.0000
     50 H17         4.4300   -6.2750  -15.8540 H         1 UNK         0.0000
     51 H18         4.5460   -2.7430   -3.9400 H         1 UNK         0.0000
     52 H19         7.5230   -5.5630   -2.7310 H         1 UNK         0.0000
     53 H20         4.3240   -1.6140   -1.6530 H         1 UNK         0.0000
     54 H21         8.4840   -2.3010   -2.3500 H         1 UNK         0.0000
     55 H22         4.7290    0.8150   -1.6560 H         1 UNK         0.0000
     56 H23         8.8790    0.1280   -2.3630 H         1 UNK         0.0000
     57 H24         7.0040    1.6840   -2.0120 H         1 UNK         0.0000
@<TRIPOS>BOND
     1    1   16 2
     2    2   27 1
     3    2   28 1
     4    3   11 1
     5    3   13 1
     6    3   16 am
     7    4    5 1
     8    4    9 1
     9    4   14 1
    10    5   17 2
    11    6   14 ar
    12    6   21 ar
    13    7   18 ar
    14    7   21 ar
    15    8   18 1
    16    8   47 1
    17    8   48 1
    18    9   10 1
    19    9   11 1
    20    9   34 1
    21   10   12 1
    22   10   35 1
    23   10   36 1
    24   11   37 1
    25   11   38 1
    26   12   13 1
    27   12   39 1
    28   12   40 1
    29   13   41 1
    30   13   42 1
    31   14   15 ar
    32   15   17 1
    33   15   18 ar
    34   16   20 1
    35   17   19 1
    36   19   22 ar
    37   19   23 ar
    38   20   24 2
    39   20   43 1
    40   21   44 1
    41   22   25 ar
    42   22   45 1
    43   23   26 ar
    44   23   46 1
    45   24   49 1
    46   24   50 1
    47   25   27 ar
    48   25   51 1
    49   26   27 ar
    50   26   52 1
    51   28   29 ar
    52   28   30 ar
    53   29   31 ar
    54   29   53 1
    55   30   32 ar
    56   30   54 1
    57   31   33 ar
    58   31   55 1
    59   32   33 ar
    60   32   56 1
    61   33   57 1
