@<TRIPOS>MOLECULE
24821094
   57    61     0     0     0
SMALL
NO_CHARGES

@<TRIPOS>ATOM
      1 O1         13.1990   -1.9860  -13.0820 O.2       1 UNK         0.0000
      2 O2          4.8510   -4.7480   -4.7670 O.3       1 UNK         0.0000
      3 N1         11.6270   -3.4360  -12.4830 N.am      1 UNK         0.0000
      4 N2          8.1400   -4.5560  -11.7900 N.pl3     1 UNK         0.0000
      5 N3          7.9870   -4.3400  -10.4160 N.2       1 UNK         0.0000
      6 N4          6.6960   -5.6920  -13.4640 N.ar      1 UNK         0.0000
      7 N5          4.7210   -6.5560  -12.6240 N.ar      1 UNK         0.0000
      8 N6          4.1150   -6.3770  -10.3530 N.pl3     1 UNK         0.0000
      9 C1          9.2870   -4.1240  -12.5920 C.3       1 UNK         0.0000
     10 C2          9.7290   -5.2670  -13.5090 C.3       1 UNK         0.0000
     11 C3         10.4450   -3.7420  -11.6640 C.3       1 UNK         0.0000
     12 C4         10.9070   -4.8060  -14.3710 C.3       1 UNK         0.0000
     13 C5         12.0800   -4.4290  -13.4660 C.3       1 UNK         0.0000
     14 C6          7.0580   -5.2350  -12.2650 C.ar      1 UNK         0.0000
     15 C7          6.1980   -5.4500  -11.1720 C.ar      1 UNK         0.0000
     16 C8         12.2780   -2.2650  -12.3380 C.2       1 UNK         0.0000
     17 C9          6.8480   -4.8480  -10.0090 C.2       1 UNK         0.0000
     18 C10         4.9940   -6.1390  -11.3920 C.ar      1 UNK         0.0000
     19 C11         6.3210   -4.8220   -8.6240 C.ar      1 UNK         0.0000
     20 C12        11.8750   -1.3250  -11.2810 C.2       1 UNK         0.0000
     21 C13         5.5570   -6.3320  -13.6210 C.ar      1 UNK         0.0000
     22 C14         5.4600   -3.8000   -8.2230 C.ar      1 UNK         0.0000
     23 C15         6.6790   -5.8210   -7.7200 C.ar      1 UNK         0.0000
     24 C16        12.7970   -0.6160  -10.6350 C.2       1 UNK         0.0000
     25 C17         4.9710   -3.7780   -6.9340 C.ar      1 UNK         0.0000
     26 C18         6.1920   -5.7910   -6.4310 C.ar      1 UNK         0.0000
     27 C19         5.3340   -4.7720   -6.0350 C.ar      1 UNK         0.0000
     28 C20         5.5670   -4.0820   -3.8240 C.ar      1 UNK         0.0000
     29 C21         6.7660   -4.6080   -3.3610 C.ar      1 UNK         0.0000
     30 C22         5.1050   -2.8720   -3.3250 C.ar      1 UNK         0.0000
     31 C23         7.4920   -3.9280   -2.4030 C.ar      1 UNK         0.0000
     32 C24         5.8320   -2.2000   -2.3630 C.ar      1 UNK         0.0000
     33 C25         7.0260   -2.7250   -1.9040 C.ar      1 UNK         0.0000
     34 H1          9.0050   -3.2610  -13.1950 H         1 UNK         0.0000
     35 H2         10.0340   -6.1210  -12.9040 H         1 UNK         0.0000
     36 H3          8.8990   -5.5580  -14.1530 H         1 UNK         0.0000
     37 H4         10.6690   -4.5740  -10.9970 H         1 UNK         0.0000
     38 H5         10.1700   -2.8650  -11.0790 H         1 UNK         0.0000
     39 H6         11.2070   -5.6120  -15.0400 H         1 UNK         0.0000
     40 H7         10.6090   -3.9380  -14.9580 H         1 UNK         0.0000
     41 H8         12.8820   -4.0050  -14.0700 H         1 UNK         0.0000
     42 H9         12.4390   -5.3180  -12.9490 H         1 UNK         0.0000
     43 H10        10.8320   -1.2140  -11.0270 H         1 UNK         0.0000
     44 H11         5.2960   -6.6890  -14.6070 H         1 UNK         0.0000
     45 H12         5.1760   -3.0280   -8.9230 H         1 UNK         0.0000
     46 H13         7.3420   -6.6170   -8.0290 H         1 UNK         0.0000
     47 H14         3.1880   -6.5950  -10.5420 H         1 UNK         0.0000
     48 H15         4.4230   -6.3250   -9.4340 H         1 UNK         0.0000
     49 H16        12.5020    0.0710   -9.8560 H         1 UNK         0.0000
     50 H17        13.8410   -0.7270  -10.8910 H         1 UNK         0.0000
     51 H18         4.3040   -2.9870   -6.6230 H         1 UNK         0.0000
     52 H19         6.4720   -6.5630   -5.7290 H         1 UNK         0.0000
     53 H20         7.1300   -5.5460   -3.7500 H         1 UNK         0.0000
     54 H21         4.1750   -2.4580   -3.6870 H         1 UNK         0.0000
     55 H22         8.4250   -4.3360   -2.0420 H         1 UNK         0.0000
     56 H23         5.4700   -1.2600   -1.9710 H         1 UNK         0.0000
     57 H24         7.5950   -2.1960   -1.1530 H         1 UNK         0.0000
@<TRIPOS>BOND
     1    1   16 2
     2    2   27 1
     3    2   28 1
     4    3   11 1
     5    3   13 1
     6    3   16 am
     7    4    5 1
     8    4    9 1
     9    4   14 1
    10    5   17 2
    11    6   14 ar
    12    6   21 ar
    13    7   18 ar
    14    7   21 ar
    15    8   18 1
    16    8   47 1
    17    8   48 1
    18    9   10 1
    19    9   11 1
    20    9   34 1
    21   10   12 1
    22   10   35 1
    23   10   36 1
    24   11   37 1
    25   11   38 1
    26   12   13 1
    27   12   39 1
    28   12   40 1
    29   13   41 1
    30   13   42 1
    31   14   15 ar
    32   15   17 1
    33   15   18 ar
    34   16   20 1
    35   17   19 1
    36   19   22 ar
    37   19   23 ar
    38   20   24 2
    39   20   43 1
    40   21   44 1
    41   22   25 ar
    42   22   45 1
    43   23   26 ar
    44   23   46 1
    45   24   49 1
    46   24   50 1
    47   25   27 ar
    48   25   51 1
    49   26   27 ar
    50   26   52 1
    51   28   29 ar
    52   28   30 ar
    53   29   31 ar
    54   29   53 1
    55   30   32 ar
    56   30   54 1
    57   31   33 ar
    58   31   55 1
    59   32   33 ar
    60   32   56 1
    61   33   57 1
