@<TRIPOS>MOLECULE
24821094
   57    61     0     0     0
SMALL
NO_CHARGES

@<TRIPOS>ATOM
      1 O1          1.1140   -8.0710   -4.2580 O.2       1 UNK         0.0000
      2 O2         12.1660   -4.0270  -10.7060 O.3       1 UNK         0.0000
      3 N1          3.0560   -7.6810   -5.2620 N.am      1 UNK         0.0000
      4 N2          5.2900   -6.2240   -7.8670 N.pl3     1 UNK         0.0000
      5 N3          6.5610   -5.6400   -7.8970 N.2       1 UNK         0.0000
      6 N4          3.9750   -7.4330   -9.5950 N.ar      1 UNK         0.0000
      7 N5          5.0260   -7.6560  -11.6440 N.ar      1 UNK         0.0000
      8 N6          7.1830   -6.8050  -12.0690 N.pl3     1 UNK         0.0000
      9 C1          4.3930   -6.2380   -6.7090 C.3       1 UNK         0.0000
     10 C2          5.1630   -5.8030   -5.4600 C.3       1 UNK         0.0000
     11 C3          3.8490   -7.6560   -6.5000 C.3       1 UNK         0.0000
     12 C4          4.2190   -5.7850   -4.2560 C.3       1 UNK         0.0000
     13 C5          3.6710   -7.1930   -4.0210 C.3       1 UNK         0.0000
     14 C6          5.0140   -6.7740   -9.0830 C.ar      1 UNK         0.0000
     15 C7          6.1350   -6.5400   -9.9020 C.ar      1 UNK         0.0000
     16 C8          1.7890   -8.1380   -5.2680 C.2       1 UNK         0.0000
     17 C9          7.1000   -5.8090   -9.0820 C.2       1 UNK         0.0000
     18 C10         6.1090   -7.0100  -11.2240 C.ar      1 UNK         0.0000
     19 C11         8.4390   -5.3380   -9.5110 C.ar      1 UNK         0.0000
     20 C12         1.2210   -8.7180   -6.4950 C.2       1 UNK         0.0000
     21 C13         3.9960   -7.8540  -10.8410 C.ar      1 UNK         0.0000
     22 C14         8.5510   -4.3230  -10.4610 C.ar      1 UNK         0.0000
     23 C15         9.5880   -5.9060   -8.9620 C.ar      1 UNK         0.0000
     24 C16         0.8720  -10.0010   -6.5240 C.2       1 UNK         0.0000
     25 C17         9.7980   -3.8880  -10.8580 C.ar      1 UNK         0.0000
     26 C18        10.8320   -5.4700   -9.3670 C.ar      1 UNK         0.0000
     27 C19        10.9400   -4.4580  -10.3130 C.ar      1 UNK         0.0000
     28 C20        12.5080   -2.7410  -10.4350 C.ar      1 UNK         0.0000
     29 C21        12.7600   -2.3480   -9.1280 C.ar      1 UNK         0.0000
     30 C22        12.6110   -1.8170  -11.4660 C.ar      1 UNK         0.0000
     31 C23        13.1070   -1.0400   -8.8560 C.ar      1 UNK         0.0000
     32 C24        12.9540   -0.5080  -11.1870 C.ar      1 UNK         0.0000
     33 C25        13.2040   -0.1200   -9.8840 C.ar      1 UNK         0.0000
     34 H1          3.5630   -5.5530   -6.8830 H         1 UNK         0.0000
     35 H2          5.9780   -6.5030   -5.2730 H         1 UNK         0.0000
     36 H3          5.5720   -4.8050   -5.6160 H         1 UNK         0.0000
     37 H4          4.6780   -8.3570   -6.4160 H         1 UNK         0.0000
     38 H5          3.2170   -7.9320   -7.3430 H         1 UNK         0.0000
     39 H6          4.7630   -5.4530   -3.3710 H         1 UNK         0.0000
     40 H7          3.3920   -5.1030   -4.4520 H         1 UNK         0.0000
     41 H8          2.9220   -7.1630   -3.2290 H         1 UNK         0.0000
     42 H9          4.4870   -7.8550   -3.7310 H         1 UNK         0.0000
     43 H10         1.0920   -8.1020   -7.3720 H         1 UNK         0.0000
     44 H11         3.1360   -8.3840  -11.2240 H         1 UNK         0.0000
     45 H12         7.6630   -3.8780  -10.8830 H         1 UNK         0.0000
     46 H13         9.5040   -6.6890   -8.2230 H         1 UNK         0.0000
     47 H14         7.1760   -7.1840  -12.9630 H         1 UNK         0.0000
     48 H15         7.9440   -6.2820  -11.7700 H         1 UNK         0.0000
     49 H16         0.4590  -10.4280   -7.4260 H         1 UNK         0.0000
     50 H17         1.0010  -10.6160   -5.6450 H         1 UNK         0.0000
     51 H18         9.8860   -3.1010  -11.5930 H         1 UNK         0.0000
     52 H19        11.7230   -5.9120   -8.9460 H         1 UNK         0.0000
     53 H20        12.6840   -3.0660   -8.3250 H         1 UNK         0.0000
     54 H21        12.4210   -2.1200  -12.4850 H         1 UNK         0.0000
     55 H22        13.3040   -0.7330   -7.8380 H         1 UNK         0.0000
     56 H23        13.0300    0.2120  -11.9890 H         1 UNK         0.0000
     57 H24        13.4760    0.9030   -9.6690 H         1 UNK         0.0000
@<TRIPOS>BOND
     1    1   16 2
     2    2   27 1
     3    2   28 1
     4    3   11 1
     5    3   13 1
     6    3   16 am
     7    4    5 1
     8    4    9 1
     9    4   14 1
    10    5   17 2
    11    6   14 ar
    12    6   21 ar
    13    7   18 ar
    14    7   21 ar
    15    8   18 1
    16    8   47 1
    17    8   48 1
    18    9   10 1
    19    9   11 1
    20    9   34 1
    21   10   12 1
    22   10   35 1
    23   10   36 1
    24   11   37 1
    25   11   38 1
    26   12   13 1
    27   12   39 1
    28   12   40 1
    29   13   41 1
    30   13   42 1
    31   14   15 ar
    32   15   17 1
    33   15   18 ar
    34   16   20 1
    35   17   19 1
    36   19   22 ar
    37   19   23 ar
    38   20   24 2
    39   20   43 1
    40   21   44 1
    41   22   25 ar
    42   22   45 1
    43   23   26 ar
    44   23   46 1
    45   24   49 1
    46   24   50 1
    47   25   27 ar
    48   25   51 1
    49   26   27 ar
    50   26   52 1
    51   28   29 ar
    52   28   30 ar
    53   29   31 ar
    54   29   53 1
    55   30   32 ar
    56   30   54 1
    57   31   33 ar
    58   31   55 1
    59   32   33 ar
    60   32   56 1
    61   33   57 1
