@<TRIPOS>MOLECULE
24821094
   57    61     0     0     0
SMALL
NO_CHARGES

@<TRIPOS>ATOM
      1 O1          0.6270  -11.8970   -9.4270 O.2       1 UNK         0.0000
      2 O2         10.9770   -3.3630  -10.7930 O.3       1 UNK         0.0000
      3 N1          1.9770  -10.1630   -9.7520 N.am      1 UNK         0.0000
      4 N2          5.0520   -8.1230   -9.2340 N.pl3     1 UNK         0.0000
      5 N3          6.1300   -7.5690   -9.9340 N.2       1 UNK         0.0000
      6 N4          4.0250   -7.5530   -7.0430 N.ar      1 UNK         0.0000
      7 N5          5.0080   -5.7750   -5.9360 N.ar      1 UNK         0.0000
      8 N6          6.8450   -4.5860   -6.8130 N.pl3     1 UNK         0.0000
      9 C1          4.2420   -9.2560   -9.6870 C.3       1 UNK         0.0000
     10 C2          4.2390   -9.3030  -11.2170 C.3       1 UNK         0.0000
     11 C3          2.8040   -9.0900   -9.1830 C.3       1 UNK         0.0000
     12 C4          3.4200  -10.5050  -11.6910 C.3       1 UNK         0.0000
     13 C5          1.9780  -10.3570  -11.2080 C.3       1 UNK         0.0000
     14 C6          4.8770   -7.4470   -8.0630 C.ar      1 UNK         0.0000
     15 C7          5.8590   -6.4400   -8.0200 C.ar      1 UNK         0.0000
     16 C8          1.2360  -10.9570   -8.9530 C.2       1 UNK         0.0000
     17 C9          6.6340   -6.5650   -9.2540 C.2       1 UNK         0.0000
     18 C10         5.9000   -5.5900   -6.9040 C.ar      1 UNK         0.0000
     19 C11         7.7820   -5.7190   -9.6610 C.ar      1 UNK         0.0000
     20 C12         1.1660  -10.6860   -7.5090 C.2       1 UNK         0.0000
     21 C13         4.1020   -6.7340   -6.0180 C.ar      1 UNK         0.0000
     22 C14         7.6240   -4.7640  -10.6650 C.ar      1 UNK         0.0000
     23 C15         9.0190   -5.8730   -9.0370 C.ar      1 UNK         0.0000
     24 C16         0.1170  -11.1030   -6.8050 C.2       1 UNK         0.0000
     25 C17         8.6940   -3.9790  -11.0410 C.ar      1 UNK         0.0000
     26 C18        10.0850   -5.0890   -9.4200 C.ar      1 UNK         0.0000
     27 C19         9.9250   -4.1380  -10.4210 C.ar      1 UNK         0.0000
     28 C20        11.2740   -2.2800  -10.0280 C.ar      1 UNK         0.0000
     29 C21        12.4450   -2.2560   -9.2820 C.ar      1 UNK         0.0000
     30 C22        10.4100   -1.1940   -9.9940 C.ar      1 UNK         0.0000
     31 C23        12.7440   -1.1530   -8.5060 C.ar      1 UNK         0.0000
     32 C24        10.7120   -0.0970   -9.2120 C.ar      1 UNK         0.0000
     33 C25        11.8790   -0.0750   -8.4710 C.ar      1 UNK         0.0000
     34 H1          4.6600  -10.1820   -9.2940 H         1 UNK         0.0000
     35 H2          3.7980   -8.3860  -11.6080 H         1 UNK         0.0000
     36 H3          5.2630   -9.3950  -11.5790 H         1 UNK         0.0000
     37 H4          2.4150   -8.1230   -9.4990 H         1 UNK         0.0000
     38 H5          2.7890   -9.1560   -8.0950 H         1 UNK         0.0000
     39 H6          3.4370  -10.5520  -12.7800 H         1 UNK         0.0000
     40 H7          3.8470  -11.4200  -11.2810 H         1 UNK         0.0000
     41 H8          1.4170  -11.2590  -11.4570 H         1 UNK         0.0000
     42 H9          1.5200   -9.4950  -11.6920 H         1 UNK         0.0000
     43 H10         1.9640  -10.1470   -7.0220 H         1 UNK         0.0000
     44 H11         3.3960   -6.8490   -5.2080 H         1 UNK         0.0000
     45 H12         6.6660   -4.6390  -11.1460 H         1 UNK         0.0000
     46 H13         9.1420   -6.6090   -8.2550 H         1 UNK         0.0000
     47 H14         6.9960   -3.9920   -7.5650 H         1 UNK         0.0000
     48 H15         7.3580   -4.4750   -5.9970 H         1 UNK         0.0000
     49 H16         0.0630  -10.9010   -5.7450 H         1 UNK         0.0000
     50 H17        -0.6810  -11.6430   -7.2930 H         1 UNK         0.0000
     51 H18         8.5730   -3.2390  -11.8180 H         1 UNK         0.0000
     52 H19        11.0450   -5.2100   -8.9400 H         1 UNK         0.0000
     53 H20        13.1200   -3.0970   -9.3100 H         1 UNK         0.0000
     54 H21         9.5010   -1.2090  -10.5770 H         1 UNK         0.0000
     55 H22        13.6550   -1.1330   -7.9260 H         1 UNK         0.0000
     56 H23        10.0380    0.7460   -9.1820 H         1 UNK         0.0000
     57 H24        12.1150    0.7860   -7.8620 H         1 UNK         0.0000
@<TRIPOS>BOND
     1    1   16 2
     2    2   27 1
     3    2   28 1
     4    3   11 1
     5    3   13 1
     6    3   16 am
     7    4    5 1
     8    4    9 1
     9    4   14 1
    10    5   17 2
    11    6   14 ar
    12    6   21 ar
    13    7   18 ar
    14    7   21 ar
    15    8   18 1
    16    8   47 1
    17    8   48 1
    18    9   10 1
    19    9   11 1
    20    9   34 1
    21   10   12 1
    22   10   35 1
    23   10   36 1
    24   11   37 1
    25   11   38 1
    26   12   13 1
    27   12   39 1
    28   12   40 1
    29   13   41 1
    30   13   42 1
    31   14   15 ar
    32   15   17 1
    33   15   18 ar
    34   16   20 1
    35   17   19 1
    36   19   22 ar
    37   19   23 ar
    38   20   24 2
    39   20   43 1
    40   21   44 1
    41   22   25 ar
    42   22   45 1
    43   23   26 ar
    44   23   46 1
    45   24   49 1
    46   24   50 1
    47   25   27 ar
    48   25   51 1
    49   26   27 ar
    50   26   52 1
    51   28   29 ar
    52   28   30 ar
    53   29   31 ar
    54   29   53 1
    55   30   32 ar
    56   30   54 1
    57   31   33 ar
    58   31   55 1
    59   32   33 ar
    60   32   56 1
    61   33   57 1
