@<TRIPOS>MOLECULE
24821094
   57    61     0     0     0
SMALL
NO_CHARGES

@<TRIPOS>ATOM
      1 O1          0.2430  -11.9410  -10.0790 O.2       1 UNK         0.0000
      2 O2          7.0380   -3.6310   -2.0480 O.3       1 UNK         0.0000
      3 N1          1.5570  -10.7700   -8.7240 N.am      1 UNK         0.0000
      4 N2          3.2070   -7.6850   -7.4400 N.pl3     1 UNK         0.0000
      5 N3          3.5350   -7.1820   -6.1760 N.2       1 UNK         0.0000
      6 N4          4.1970   -7.3060   -9.6870 N.ar      1 UNK         0.0000
      7 N5          6.0060   -5.8650   -9.7280 N.ar      1 UNK         0.0000
      8 N6          6.8540   -4.8280   -7.7870 N.pl3     1 UNK         0.0000
      9 C1          2.1100   -8.6140   -7.7210 C.3       1 UNK         0.0000
     10 C2          1.5440   -9.1510   -6.4040 C.3       1 UNK         0.0000
     11 C3          2.6350   -9.7850   -8.5610 C.3       1 UNK         0.0000
     12 C4          0.3770  -10.0970   -6.6960 C.3       1 UNK         0.0000
     13 C5          0.8780  -11.2790   -7.5250 C.3       1 UNK         0.0000
     14 C6          4.0620   -7.1710   -8.3680 C.ar      1 UNK         0.0000
     15 C7          4.9560   -6.3300   -7.6800 C.ar      1 UNK         0.0000
     16 C8          1.1940  -11.1940   -9.9510 C.2       1 UNK         0.0000
     17 C9          4.5700   -6.3800   -6.2710 C.2       1 UNK         0.0000
     18 C10         5.9520   -5.6670   -8.4140 C.ar      1 UNK         0.0000
     19 C11         5.2220   -5.6530   -5.1550 C.ar      1 UNK         0.0000
     20 C12         1.9490  -10.7540  -11.1340 C.2       1 UNK         0.0000
     21 C13         5.1470   -6.6640  -10.3330 C.ar      1 UNK         0.0000
     22 C14         6.0220   -6.3440   -4.2450 C.ar      1 UNK         0.0000
     23 C15         5.0410   -4.2780   -5.0160 C.ar      1 UNK         0.0000
     24 C16         2.0390  -11.5470  -12.1980 C.2       1 UNK         0.0000
     25 C17         6.6270   -5.6650   -3.2080 C.ar      1 UNK         0.0000
     26 C18         5.6440   -3.6060   -3.9750 C.ar      1 UNK         0.0000
     27 C19         6.4410   -4.2960   -3.0700 C.ar      1 UNK         0.0000
     28 C20         6.8590   -2.2870   -1.9700 C.ar      1 UNK         0.0000
     29 C21         7.9260   -1.4280   -2.1970 C.ar      1 UNK         0.0000
     30 C22         5.6070   -1.7690   -1.6700 C.ar      1 UNK         0.0000
     31 C23         7.7390   -0.0620   -2.1180 C.ar      1 UNK         0.0000
     32 C24         5.4280   -0.4020   -1.5870 C.ar      1 UNK         0.0000
     33 C25         6.4920    0.4510   -1.8130 C.ar      1 UNK         0.0000
     34 H1          1.3250   -8.0960   -8.2710 H         1 UNK         0.0000
     35 H2          2.3240   -9.6910   -5.8670 H         1 UNK         0.0000
     36 H3          1.1930   -8.3180   -5.7940 H         1 UNK         0.0000
     37 H4          3.4800  -10.2490   -8.0530 H         1 UNK         0.0000
     38 H5          2.9470   -9.4210   -9.5390 H         1 UNK         0.0000
     39 H6         -0.0400  -10.4610   -5.7570 H         1 UNK         0.0000
     40 H7         -0.3920   -9.5640   -7.2540 H         1 UNK         0.0000
     41 H8          0.0330  -11.9000   -7.8200 H         1 UNK         0.0000
     42 H9          1.5770  -11.8670   -6.9310 H         1 UNK         0.0000
     43 H10         2.4320   -9.7880  -11.1370 H         1 UNK         0.0000
     44 H11         5.2270   -6.7960  -11.4020 H         1 UNK         0.0000
     45 H12         6.1680   -7.4080   -4.3530 H         1 UNK         0.0000
     46 H13         4.4250   -3.7390   -5.7230 H         1 UNK         0.0000
     47 H14         6.9840   -4.8870   -6.8270 H         1 UNK         0.0000
     48 H15         7.3580   -4.1820   -8.3060 H         1 UNK         0.0000
     49 H16         2.5970  -11.2250  -13.0660 H         1 UNK         0.0000
     50 H17         1.5550  -12.5120  -12.1950 H         1 UNK         0.0000
     51 H18         7.2470   -6.1990   -2.5030 H         1 UNK         0.0000
     52 H19         5.5010   -2.5410   -3.8640 H         1 UNK         0.0000
     53 H20         8.9000   -1.8290   -2.4350 H         1 UNK         0.0000
     54 H21         4.7730   -2.4340   -1.4990 H         1 UNK         0.0000
     55 H22         8.5690    0.6070   -2.2940 H         1 UNK         0.0000
     56 H23         4.4540    0.0010   -1.3490 H         1 UNK         0.0000
     57 H24         6.3490    1.5200   -1.7510 H         1 UNK         0.0000
@<TRIPOS>BOND
     1    1   16 2
     2    2   27 1
     3    2   28 1
     4    3   11 1
     5    3   13 1
     6    3   16 am
     7    4    5 1
     8    4    9 1
     9    4   14 1
    10    5   17 2
    11    6   14 ar
    12    6   21 ar
    13    7   18 ar
    14    7   21 ar
    15    8   18 1
    16    8   47 1
    17    8   48 1
    18    9   10 1
    19    9   11 1
    20    9   34 1
    21   10   12 1
    22   10   35 1
    23   10   36 1
    24   11   37 1
    25   11   38 1
    26   12   13 1
    27   12   39 1
    28   12   40 1
    29   13   41 1
    30   13   42 1
    31   14   15 ar
    32   15   17 1
    33   15   18 ar
    34   16   20 1
    35   17   19 1
    36   19   22 ar
    37   19   23 ar
    38   20   24 2
    39   20   43 1
    40   21   44 1
    41   22   25 ar
    42   22   45 1
    43   23   26 ar
    44   23   46 1
    45   24   49 1
    46   24   50 1
    47   25   27 ar
    48   25   51 1
    49   26   27 ar
    50   26   52 1
    51   28   29 ar
    52   28   30 ar
    53   29   31 ar
    54   29   53 1
    55   30   32 ar
    56   30   54 1
    57   31   33 ar
    58   31   55 1
    59   32   33 ar
    60   32   56 1
    61   33   57 1
