@<TRIPOS>MOLECULE
24821094
   57    61     0     0     0
SMALL
NO_CHARGES

@<TRIPOS>ATOM
      1 O1         13.1530   -0.9960  -11.9210 O.2       1 UNK         0.0000
      2 O2          2.8690   -8.4020   -8.5580 O.3       1 UNK         0.0000
      3 N1         11.5080   -2.3510  -11.2980 N.am      1 UNK         0.0000
      4 N2          9.4570   -5.4620  -11.4090 N.pl3     1 UNK         0.0000
      5 N3          8.4400   -5.7260  -10.4850 N.2       1 UNK         0.0000
      6 N4          9.8030   -6.2030  -13.7550 N.ar      1 UNK         0.0000
      7 N5          8.1470   -7.5790  -14.6000 N.ar      1 UNK         0.0000
      8 N6          6.2670   -8.2350  -13.3360 N.pl3     1 UNK         0.0000
      9 C1         10.6330   -4.6260  -11.1560 C.3       1 UNK         0.0000
     10 C2         10.9090   -4.5720   -9.6510 C.3       1 UNK         0.0000
     11 C3         10.3740   -3.2070  -11.6740 C.3       1 UNK         0.0000
     12 C4         12.1570   -3.7260   -9.3890 C.3       1 UNK         0.0000
     13 C5         11.9170   -2.3020   -9.8880 C.3       1 UNK         0.0000
     14 C6          9.1860   -6.1070  -12.5780 C.ar      1 UNK         0.0000
     15 C7          7.9690   -6.7900  -12.3960 C.ar      1 UNK         0.0000
     16 C8         12.1620   -1.6300  -12.2300 C.2       1 UNK         0.0000
     17 C9          7.5350   -6.5040  -11.0290 C.2       1 UNK         0.0000
     18 C10         7.4580   -7.5450  -13.4640 C.ar      1 UNK         0.0000
     19 C11         6.3010   -7.0050  -10.3770 C.ar      1 UNK         0.0000
     20 C12        11.6780   -1.6100  -13.6180 C.2       1 UNK         0.0000
     21 C13         9.2850   -6.9220  -14.7270 C.ar      1 UNK         0.0000
     22 C14         6.3070   -8.2400   -9.7280 C.ar      1 UNK         0.0000
     23 C15         5.1360   -6.2410  -10.4050 C.ar      1 UNK         0.0000
     24 C16        12.0310   -0.6180  -14.4310 C.2       1 UNK         0.0000
     25 C17         5.1590   -8.7040   -9.1220 C.ar      1 UNK         0.0000
     26 C18         3.9890   -6.7120   -9.8010 C.ar      1 UNK         0.0000
     27 C19         3.9980   -7.9430   -9.1560 C.ar      1 UNK         0.0000
     28 C20         2.7350   -8.2160   -7.2190 C.ar      1 UNK         0.0000
     29 C21         1.6610   -8.7800   -6.5420 C.ar      1 UNK         0.0000
     30 C22         3.6730   -7.4660   -6.5240 C.ar      1 UNK         0.0000
     31 C23         1.5280   -8.5880   -5.1810 C.ar      1 UNK         0.0000
     32 C24         3.5310   -7.2740   -5.1640 C.ar      1 UNK         0.0000
     33 C25         2.4620   -7.8360   -4.4920 C.ar      1 UNK         0.0000
     34 H1         11.4970   -5.0480  -11.6700 H         1 UNK         0.0000
     35 H2         10.0540   -4.1270   -9.1410 H         1 UNK         0.0000
     36 H3         11.0690   -5.5830   -9.2750 H         1 UNK         0.0000
     37 H4          9.4590   -2.8170  -11.2290 H         1 UNK         0.0000
     38 H5         10.2760   -3.2270  -12.7590 H         1 UNK         0.0000
     39 H6         12.3650   -3.7070   -8.3190 H         1 UNK         0.0000
     40 H7         13.0060   -4.1570   -9.9170 H         1 UNK         0.0000
     41 H8         12.8380   -1.7250   -9.7950 H         1 UNK         0.0000
     42 H9         11.1310   -1.8370   -9.2950 H         1 UNK         0.0000
     43 H10        11.0330   -2.3980  -13.9760 H         1 UNK         0.0000
     44 H11         9.8130   -6.9780  -15.6680 H         1 UNK         0.0000
     45 H12         7.2100   -8.8320   -9.7000 H         1 UNK         0.0000
     46 H13         5.1300   -5.2820  -10.9020 H         1 UNK         0.0000
     47 H14         5.4650   -7.9020  -13.7690 H         1 UNK         0.0000
     48 H15         6.2330   -9.0520  -12.8150 H         1 UNK         0.0000
     49 H16        11.6720   -0.6010  -15.4500 H         1 UNK         0.0000
     50 H17        12.6760    0.1710  -14.0720 H         1 UNK         0.0000
     51 H18         5.1620   -9.6600   -8.6200 H         1 UNK         0.0000
     52 H19         3.0840   -6.1230   -9.8260 H         1 UNK         0.0000
     53 H20         0.9320   -9.3670   -7.0800 H         1 UNK         0.0000
     54 H21         4.5120   -7.0310   -7.0470 H         1 UNK         0.0000
     55 H22         0.6930   -9.0270   -4.6530 H         1 UNK         0.0000
     56 H23         4.2590   -6.6870   -4.6230 H         1 UNK         0.0000
     57 H24         2.3550   -7.6880   -3.4270 H         1 UNK         0.0000
@<TRIPOS>BOND
     1    1   16 2
     2    2   27 1
     3    2   28 1
     4    3   11 1
     5    3   13 1
     6    3   16 am
     7    4    5 1
     8    4    9 1
     9    4   14 1
    10    5   17 2
    11    6   14 ar
    12    6   21 ar
    13    7   18 ar
    14    7   21 ar
    15    8   18 1
    16    8   47 1
    17    8   48 1
    18    9   10 1
    19    9   11 1
    20    9   34 1
    21   10   12 1
    22   10   35 1
    23   10   36 1
    24   11   37 1
    25   11   38 1
    26   12   13 1
    27   12   39 1
    28   12   40 1
    29   13   41 1
    30   13   42 1
    31   14   15 ar
    32   15   17 1
    33   15   18 ar
    34   16   20 1
    35   17   19 1
    36   19   22 ar
    37   19   23 ar
    38   20   24 2
    39   20   43 1
    40   21   44 1
    41   22   25 ar
    42   22   45 1
    43   23   26 ar
    44   23   46 1
    45   24   49 1
    46   24   50 1
    47   25   27 ar
    48   25   51 1
    49   26   27 ar
    50   26   52 1
    51   28   29 ar
    52   28   30 ar
    53   29   31 ar
    54   29   53 1
    55   30   32 ar
    56   30   54 1
    57   31   33 ar
    58   31   55 1
    59   32   33 ar
    60   32   56 1
    61   33   57 1
