@<TRIPOS>MOLECULE
5328940
   65    68     0     0     0
SMALL
NO_CHARGES

@<TRIPOS>ATOM
      1 Cl1         7.2920  -23.8220    2.6450 Cl        1 UNK         0.0000
      2 Cl2         6.0800  -29.0690    3.0500 Cl        1 UNK         0.0000
      3 O1         11.4410  -24.0290   -2.9640 O.3       1 UNK         0.0000
      4 O2         10.8580  -24.0990   -0.2800 O.3       1 UNK         0.0000
      5 O3          4.7680  -28.6390    0.4390 O.3       1 UNK         0.0000
      6 N1         10.5510  -27.9900   -2.5630 N.3       1 UNK         0.0000
      7 N2          9.7390  -28.2030    0.1580 N.3       1 UNK         0.0000
      8 N3          5.8230  -23.9800    0.0640 N.pl3     1 UNK         0.0000
      9 N4          6.8040  -23.8840   -3.9760 N.ar      1 UNK         0.0000
     10 N5          2.6810  -23.8470   -1.6170 N.1       1 UNK         0.0000
     11 C1          9.1930  -27.6030   -2.1520 C.3       1 UNK         0.0000
     12 C2         11.5110  -27.7640   -1.4730 C.3       1 UNK         0.0000
     13 C3          8.7780  -28.4280   -0.9310 C.3       1 UNK         0.0000
     14 C4         11.0960  -28.5880   -0.2530 C.3       1 UNK         0.0000
     15 C5         10.9560  -27.2730   -3.7790 C.3       1 UNK         0.0000
     16 C6         12.0930  -26.3050   -3.4470 C.3       1 UNK         0.0000
     17 C7          9.3330  -28.9190    1.3750 C.3       1 UNK         0.0000
     18 C8         11.7740  -24.9260   -4.0250 C.3       1 UNK         0.0000
     19 C9         10.1450  -24.0090   -2.5570 C.ar      1 UNK         0.0000
     20 C10         9.8460  -24.0450   -1.1880 C.ar      1 UNK         0.0000
     21 C11         7.5070  -23.9680   -1.6920 C.ar      1 UNK         0.0000
     22 C12         9.1380  -23.9530   -3.4950 C.ar      1 UNK         0.0000
     23 C13         7.7990  -23.9320   -3.0770 C.ar      1 UNK         0.0000
     24 C14         8.5510  -24.0250   -0.7570 C.ar      1 UNK         0.0000
     25 C15         6.1560  -23.9460   -1.2750 C.ar      1 UNK         0.0000
     26 C16         5.1650  -23.8900   -2.2660 C.ar      1 UNK         0.0000
     27 C17         5.5460  -23.8570   -3.6180 C.ar      1 UNK         0.0000
     28 C18         5.8820  -25.1860    0.7690 C.ar      1 UNK         0.0000
     29 C19         5.2890  -26.3260    0.2470 C.ar      1 UNK         0.0000
     30 C20        10.6450  -24.9100    0.8790 C.3       1 UNK         0.0000
     31 C21         6.5420  -25.2450    1.9920 C.ar      1 UNK         0.0000
     32 C22         5.3490  -27.5200    0.9480 C.ar      1 UNK         0.0000
     33 C23         3.7790  -23.8650   -1.9050 C.1       1 UNK         0.0000
     34 C24         6.5960  -26.4370    2.6920 C.ar      1 UNK         0.0000
     35 C25         6.0040  -27.5730    2.1710 C.ar      1 UNK         0.0000
     36 C26         5.0490  -28.9510   -0.9270 C.3       1 UNK         0.0000
     37 H1          9.1780  -26.5430   -1.8980 H         1 UNK         0.0000
     38 H2          8.4990  -27.7910   -2.9710 H         1 UNK         0.0000
     39 H3         12.5060  -28.0700   -1.7980 H         1 UNK         0.0000
     40 H4         11.5220  -26.7070   -1.2110 H         1 UNK         0.0000
     41 H5          8.7670  -29.4860   -1.1930 H         1 UNK         0.0000
     42 H6          7.7840  -28.1230   -0.6070 H         1 UNK         0.0000
     43 H7         11.1110  -29.6490   -0.5070 H         1 UNK         0.0000
     44 H8         11.7910  -28.4010    0.5650 H         1 UNK         0.0000
     45 H9         10.1060  -26.7150   -4.1710 H         1 UNK         0.0000
     46 H10        11.2960  -27.9890   -4.5270 H         1 UNK         0.0000
     47 H11        13.0220  -26.6750   -3.8800 H         1 UNK         0.0000
     48 H12        12.2020  -26.2290   -2.3650 H         1 UNK         0.0000
     49 H13        10.1680  -28.9480    2.0750 H         1 UNK         0.0000
     50 H14         8.4910  -28.4030    1.8350 H         1 UNK         0.0000
     51 H15         9.0400  -29.9360    1.1160 H         1 UNK         0.0000
     52 H16        10.9320  -25.0050   -4.7120 H         1 UNK         0.0000
     53 H17        12.6460  -24.5460   -4.5600 H         1 UNK         0.0000
     54 H18         9.3790  -23.9260   -4.5470 H         1 UNK         0.0000
     55 H19         8.3310  -24.0520    0.3000 H         1 UNK         0.0000
     56 H20         5.5480  -23.1670    0.5170 H         1 UNK         0.0000
     57 H21         4.7830  -23.8130   -4.3800 H         1 UNK         0.0000
     58 H22         4.7800  -26.2840   -0.7050 H         1 UNK         0.0000
     59 H23        10.5010  -24.2700    1.7490 H         1 UNK         0.0000
     60 H24         9.7600  -25.5280    0.7310 H         1 UNK         0.0000
     61 H25        11.5140  -25.5490    1.0380 H         1 UNK         0.0000
     62 H26         7.1050  -26.4800    3.6440 H         1 UNK         0.0000
     63 H27         5.0410  -28.0350   -1.5180 H         1 UNK         0.0000
     64 H28         6.0290  -29.4220   -0.9980 H         1 UNK         0.0000
     65 H29         4.2880  -29.6350   -1.3060 H         1 UNK         0.0000
@<TRIPOS>BOND
     1    1   31 1
     2    2   35 1
     3    3   18 1
     4    3   19 1
     5    4   20 1
     6    4   30 1
     7    5   32 1
     8    5   36 1
     9    6   11 1
    10    6   12 1
    11    6   15 1
    12    7   13 1
    13    7   14 1
    14    7   17 1
    15    8   25 1
    16    8   28 1
    17    8   56 1
    18    9   23 ar
    19    9   27 ar
    20   10   33 3
    21   11   13 1
    22   11   37 1
    23   11   38 1
    24   12   14 1
    25   12   39 1
    26   12   40 1
    27   13   41 1
    28   13   42 1
    29   14   43 1
    30   14   44 1
    31   15   16 1
    32   15   45 1
    33   15   46 1
    34   16   18 1
    35   16   47 1
    36   16   48 1
    37   17   49 1
    38   17   50 1
    39   17   51 1
    40   18   52 1
    41   18   53 1
    42   19   20 ar
    43   19   22 ar
    44   20   24 ar
    45   21   23 ar
    46   21   24 ar
    47   21   25 ar
    48   22   23 ar
    49   22   54 1
    50   24   55 1
    51   25   26 ar
    52   26   27 ar
    53   26   33 1
    54   27   57 1
    55   28   29 ar
    56   28   31 ar
    57   29   32 ar
    58   29   58 1
    59   30   59 1
    60   30   60 1
    61   30   61 1
    62   31   34 ar
    63   32   35 ar
    64   34   35 ar
    65   34   62 1
    66   36   63 1
    67   36   64 1
    68   36   65 1
