@<TRIPOS>MOLECULE
5328940
   65    68     0     0     0
SMALL
NO_CHARGES

@<TRIPOS>ATOM
      1 Cl1         7.1800  -23.3620   -8.3160 Cl        1 UNK         0.0000
      2 Cl2         9.4580  -28.2600   -8.2990 Cl        1 UNK         0.0000
      3 O1          8.0820  -23.1560    0.9470 O.3       1 UNK         0.0000
      4 O2          9.8230  -22.7210   -1.1330 O.3       1 UNK         0.0000
      5 O3          9.2330  -28.0010   -5.3660 O.3       1 UNK         0.0000
      6 N1          6.9040  -26.4110    1.3680 N.3       1 UNK         0.0000
      7 N2          5.6550  -27.9340   -0.6880 N.3       1 UNK         0.0000
      8 N3          7.2210  -23.6520   -5.3570 N.pl3     1 UNK         0.0000
      9 N4          4.6570  -24.2790   -2.1430 N.ar      1 UNK         0.0000
     10 N5          4.1310  -24.6210   -6.8520 N.1       1 UNK         0.0000
     11 C1          5.5730  -27.0000    1.5730 C.3       1 UNK         0.0000
     12 C2          7.7050  -27.2370    0.4530 C.3       1 UNK         0.0000
     13 C3          4.8530  -27.1090    0.2280 C.3       1 UNK         0.0000
     14 C4          6.9860  -27.3460   -0.8920 C.3       1 UNK         0.0000
     15 C5          7.5970  -26.2200    2.6490 C.3       1 UNK         0.0000
     16 C6          8.2570  -24.8400    2.6720 C.3       1 UNK         0.0000
     17 C7          4.9610  -28.1260   -1.9680 C.3       1 UNK         0.0000
     18 C8          7.3480  -23.8280    1.9730 C.3       1 UNK         0.0000
     19 C9          7.6580  -23.3300   -0.3320 C.ar      1 UNK         0.0000
     20 C10         8.5450  -23.1080   -1.3930 C.ar      1 UNK         0.0000
     21 C11         6.8230  -23.6770   -2.9570 C.ar      1 UNK         0.0000
     22 C12         6.3600  -23.7230   -0.5700 C.ar      1 UNK         0.0000
     23 C13         5.9200  -23.9030   -1.8910 C.ar      1 UNK         0.0000
     24 C14         8.1400  -23.2780   -2.6860 C.ar      1 UNK         0.0000
     25 C15         6.3760  -23.8610   -4.2850 C.ar      1 UNK         0.0000
     26 C16         5.0450  -24.2600   -4.4790 C.ar      1 UNK         0.0000
     27 C17         4.2180  -24.4620   -3.3620 C.ar      1 UNK         0.0000
     28 C18         7.7510  -24.7440   -6.0510 C.ar      1 UNK         0.0000
     29 C19         8.2330  -25.8430   -5.3550 C.ar      1 UNK         0.0000
     30 C20        10.8110  -23.0440   -2.1140 C.3       1 UNK         0.0000
     31 C21         7.7900  -24.7330   -7.4410 C.ar      1 UNK         0.0000
     32 C22         8.7580  -26.9240   -6.0460 C.ar      1 UNK         0.0000
     33 C23         4.5350  -24.4620   -5.8020 C.1       1 UNK         0.0000
     34 C24         8.3180  -25.8100   -8.1270 C.ar      1 UNK         0.0000
     35 C25         8.8000  -26.9050   -7.4330 C.ar      1 UNK         0.0000
     36 C26         8.9680  -28.0500   -3.9620 C.3       1 UNK         0.0000
     37 H1          5.6770  -27.9920    2.0120 H         1 UNK         0.0000
     38 H2          4.9950  -26.3640    2.2440 H         1 UNK         0.0000
     39 H3          8.6810  -26.7730    0.3080 H         1 UNK         0.0000
     40 H4          7.8340  -28.2310    0.8790 H         1 UNK         0.0000
     41 H5          4.7250  -26.1140   -0.1980 H         1 UNK         0.0000
     42 H6          3.8770  -27.5720    0.3730 H         1 UNK         0.0000
     43 H7          6.8820  -26.3540   -1.3310 H         1 UNK         0.0000
     44 H8          7.5650  -27.9800   -1.5630 H         1 UNK         0.0000
     45 H9          8.3600  -26.9890    2.7670 H         1 UNK         0.0000
     46 H10         6.8790  -26.2920    3.4660 H         1 UNK         0.0000
     47 H11         9.2150  -24.8860    2.1540 H         1 UNK         0.0000
     48 H12         8.4170  -24.5300    3.7050 H         1 UNK         0.0000
     49 H13         4.7040  -27.1560   -2.3920 H         1 UNK         0.0000
     50 H14         5.6130  -28.6610   -2.6580 H         1 UNK         0.0000
     51 H15         4.0520  -28.7040   -1.8040 H         1 UNK         0.0000
     52 H16         6.9890  -23.0990    2.6990 H         1 UNK         0.0000
     53 H17         6.4980  -24.3480    1.5290 H         1 UNK         0.0000
     54 H18         5.6840  -23.8900    0.2550 H         1 UNK         0.0000
     55 H19         8.8310  -23.1050   -3.4980 H         1 UNK         0.0000
     56 H20         7.4470  -22.7490   -5.6280 H         1 UNK         0.0000
     57 H21         3.1950  -24.7690   -3.5130 H         1 UNK         0.0000
     58 H22         8.2010  -25.8560   -4.2750 H         1 UNK         0.0000
     59 H23        11.3250  -23.9600   -1.8250 H         1 UNK         0.0000
     60 H24        10.3280  -23.1880   -3.0810 H         1 UNK         0.0000
     61 H25        11.5320  -22.2300   -2.1850 H         1 UNK         0.0000
     62 H26         8.3510  -25.7980   -9.2070 H         1 UNK         0.0000
     63 H27         9.9000  -27.9280   -3.4120 H         1 UNK         0.0000
     64 H28         8.2790  -27.2500   -3.6940 H         1 UNK         0.0000
     65 H29         8.5210  -29.0130   -3.7110 H         1 UNK         0.0000
@<TRIPOS>BOND
     1    1   31 1
     2    2   35 1
     3    3   18 1
     4    3   19 1
     5    4   20 1
     6    4   30 1
     7    5   32 1
     8    5   36 1
     9    6   11 1
    10    6   12 1
    11    6   15 1
    12    7   13 1
    13    7   14 1
    14    7   17 1
    15    8   25 1
    16    8   28 1
    17    8   56 1
    18    9   23 ar
    19    9   27 ar
    20   10   33 3
    21   11   13 1
    22   11   37 1
    23   11   38 1
    24   12   14 1
    25   12   39 1
    26   12   40 1
    27   13   41 1
    28   13   42 1
    29   14   43 1
    30   14   44 1
    31   15   16 1
    32   15   45 1
    33   15   46 1
    34   16   18 1
    35   16   47 1
    36   16   48 1
    37   17   49 1
    38   17   50 1
    39   17   51 1
    40   18   52 1
    41   18   53 1
    42   19   20 ar
    43   19   22 ar
    44   20   24 ar
    45   21   23 ar
    46   21   24 ar
    47   21   25 ar
    48   22   23 ar
    49   22   54 1
    50   24   55 1
    51   25   26 ar
    52   26   27 ar
    53   26   33 1
    54   27   57 1
    55   28   29 ar
    56   28   31 ar
    57   29   32 ar
    58   29   58 1
    59   30   59 1
    60   30   60 1
    61   30   61 1
    62   31   34 ar
    63   32   35 ar
    64   34   35 ar
    65   34   62 1
    66   36   63 1
    67   36   64 1
    68   36   65 1
