@<TRIPOS>MOLECULE
5328940
   65    68     0     0     0
SMALL
NO_CHARGES

@<TRIPOS>ATOM
      1 Cl1         2.1990  -22.7730   -1.3290 Cl        1 UNK         0.0000
      2 Cl2         4.4790  -23.3040   -6.1960 Cl        1 UNK         0.0000
      3 O1          2.2170  -29.7880    0.2910 O.3       1 UNK         0.0000
      4 O2          1.1720  -27.4990   -0.8120 O.3       1 UNK         0.0000
      5 O3          6.7370  -24.4300   -4.6600 O.3       1 UNK         0.0000
      6 N1          3.3810  -29.4810   -3.6950 N.3       1 UNK         0.0000
      7 N2          2.3550  -27.0050   -4.6560 N.3       1 UNK         0.0000
      8 N3          4.7370  -23.9580   -0.3320 N.pl3     1 UNK         0.0000
      9 N4          6.2350  -27.4740    1.3090 N.ar      1 UNK         0.0000
     10 N5          8.0080  -23.0960    0.7970 N.1       1 UNK         0.0000
     11 C1          4.0870  -28.2200   -3.4240 C.3       1 UNK         0.0000
     12 C2          1.9320  -29.2580   -3.7960 C.3       1 UNK         0.0000
     13 C3          3.8040  -27.2280   -4.5540 C.3       1 UNK         0.0000
     14 C4          1.6490  -28.2650   -4.9260 C.3       1 UNK         0.0000
     15 C5          3.6890  -30.4860   -2.6690 C.3       1 UNK         0.0000
     16 C6          2.4190  -30.8210   -1.8850 C.3       1 UNK         0.0000
     17 C7          2.0470  -25.9990   -5.6800 C.3       1 UNK         0.0000
     18 C8          2.7510  -30.9220   -0.3950 C.3       1 UNK         0.0000
     19 C9          2.9590  -28.6500    0.2750 C.ar      1 UNK         0.0000
     20 C10         2.4270  -27.4820   -0.2880 C.ar      1 UNK         0.0000
     21 C11         4.4500  -26.3090    0.2260 C.ar      1 UNK         0.0000
     22 C12         4.2270  -28.6580    0.8120 C.ar      1 UNK         0.0000
     23 C13         4.9960  -27.4840    0.7960 C.ar      1 UNK         0.0000
     24 C14         3.1550  -26.3280   -0.3140 C.ar      1 UNK         0.0000
     25 C15         5.2270  -25.1280    0.2130 C.ar      1 UNK         0.0000
     26 C16         6.5130  -25.1830    0.7700 C.ar      1 UNK         0.0000
     27 C17         6.9740  -26.3940    1.3150 C.ar      1 UNK         0.0000
     28 C18         4.6780  -23.8040   -1.7210 C.ar      1 UNK         0.0000
     29 C19         5.7490  -24.1990   -2.5090 C.ar      1 UNK         0.0000
     30 C20         0.7620  -26.3450   -1.5500 C.3       1 UNK         0.0000
     31 C21         3.5430  -23.2610   -2.3130 C.ar      1 UNK         0.0000
     32 C22         5.6880  -24.0450   -3.8860 C.ar      1 UNK         0.0000
     33 C23         7.3470  -24.0190    0.7860 C.1       1 UNK         0.0000
     34 C24         3.4880  -23.1040   -3.6860 C.ar      1 UNK         0.0000
     35 C25         4.5560  -23.4970   -4.4720 C.ar      1 UNK         0.0000
     36 C26         8.0090  -24.5470   -4.0190 C.3       1 UNK         0.0000
     37 H1          3.7390  -27.8040   -2.4780 H         1 UNK         0.0000
     38 H2          5.1590  -28.4090   -3.3660 H         1 UNK         0.0000
     39 H3          1.4340  -30.2040   -4.0090 H         1 UNK         0.0000
     40 H4          1.5600  -28.8540   -2.8560 H         1 UNK         0.0000
     41 H5          4.1770  -27.6320   -5.4950 H         1 UNK         0.0000
     42 H6          4.3030  -26.2820   -4.3410 H         1 UNK         0.0000
     43 H7          1.9970  -28.6810   -5.8720 H         1 UNK         0.0000
     44 H8          0.5780  -28.0770   -4.9840 H         1 UNK         0.0000
     45 H9          4.4430  -30.0910   -1.9890 H         1 UNK         0.0000
     46 H10         4.0690  -31.3890   -3.1470 H         1 UNK         0.0000
     47 H11         2.0180  -31.7730   -2.2320 H         1 UNK         0.0000
     48 H12         1.6780  -30.0360   -2.0390 H         1 UNK         0.0000
     49 H13         1.4060  -26.4400   -6.4430 H         1 UNK         0.0000
     50 H14         1.5350  -25.1550   -5.2190 H         1 UNK         0.0000
     51 H15         2.9740  -25.6540   -6.1400 H         1 UNK         0.0000
     52 H16         3.8330  -30.9490   -0.2650 H         1 UNK         0.0000
     53 H17         2.3130  -31.8330    0.0140 H         1 UNK         0.0000
     54 H18         4.6280  -29.5630    1.2420 H         1 UNK         0.0000
     55 H19         2.7370  -25.4330   -0.7490 H         1 UNK         0.0000
     56 H20         4.4330  -23.2420    0.2480 H         1 UNK         0.0000
     57 H21         7.9640  -26.4350    1.7440 H         1 UNK         0.0000
     58 H22         6.6300  -24.6250   -2.0520 H         1 UNK         0.0000
     59 H23         0.4790  -26.6410   -2.5600 H         1 UNK         0.0000
     60 H24        -0.0910  -25.8820   -1.0540 H         1 UNK         0.0000
     61 H25         1.5870  -25.6340   -1.5970 H         1 UNK         0.0000
     62 H26         2.6070  -22.6780   -4.1440 H         1 UNK         0.0000
     63 H27         8.1710  -23.6840   -3.3740 H         1 UNK         0.0000
     64 H28         8.0320  -25.4580   -3.4220 H         1 UNK         0.0000
     65 H29         8.7940  -24.5870   -4.7750 H         1 UNK         0.0000
@<TRIPOS>BOND
     1    1   31 1
     2    2   35 1
     3    3   18 1
     4    3   19 1
     5    4   20 1
     6    4   30 1
     7    5   32 1
     8    5   36 1
     9    6   11 1
    10    6   12 1
    11    6   15 1
    12    7   13 1
    13    7   14 1
    14    7   17 1
    15    8   25 1
    16    8   28 1
    17    8   56 1
    18    9   23 ar
    19    9   27 ar
    20   10   33 3
    21   11   13 1
    22   11   37 1
    23   11   38 1
    24   12   14 1
    25   12   39 1
    26   12   40 1
    27   13   41 1
    28   13   42 1
    29   14   43 1
    30   14   44 1
    31   15   16 1
    32   15   45 1
    33   15   46 1
    34   16   18 1
    35   16   47 1
    36   16   48 1
    37   17   49 1
    38   17   50 1
    39   17   51 1
    40   18   52 1
    41   18   53 1
    42   19   20 ar
    43   19   22 ar
    44   20   24 ar
    45   21   23 ar
    46   21   24 ar
    47   21   25 ar
    48   22   23 ar
    49   22   54 1
    50   24   55 1
    51   25   26 ar
    52   26   27 ar
    53   26   33 1
    54   27   57 1
    55   28   29 ar
    56   28   31 ar
    57   29   32 ar
    58   29   58 1
    59   30   59 1
    60   30   60 1
    61   30   61 1
    62   31   34 ar
    63   32   35 ar
    64   34   35 ar
    65   34   62 1
    66   36   63 1
    67   36   64 1
    68   36   65 1
