@<TRIPOS>MOLECULE
5328940
   65    68     0     0     0
SMALL
NO_CHARGES

@<TRIPOS>ATOM
      1 Cl1        12.5490  -27.1200    0.8390 Cl        1 UNK         0.0000
      2 Cl2         9.7940  -31.3690   -1.0400 Cl        1 UNK         0.0000
      3 O1          7.4060  -24.3950    4.8830 O.3       1 UNK         0.0000
      4 O2          9.5590  -26.0150    4.3460 O.3       1 UNK         0.0000
      5 O3          8.0670  -29.3050   -2.2550 O.3       1 UNK         0.0000
      6 N1          5.2230  -26.4260    2.8990 N.3       1 UNK         0.0000
      7 N2          5.2480  -26.7710    0.0730 N.3       1 UNK         0.0000
      8 N3         10.4890  -25.5210   -0.5900 N.pl3     1 UNK         0.0000
      9 N4          7.2390  -23.0920    0.3210 N.ar      1 UNK         0.0000
     10 N5          9.6040  -24.0080   -3.6960 N.1       1 UNK         0.0000
     11 C1          4.0880  -25.9810    2.0780 C.3       1 UNK         0.0000
     12 C2          5.8830  -27.5900    2.2910 C.3       1 UNK         0.0000
     13 C3          4.5860  -25.6080    0.6810 C.3       1 UNK         0.0000
     14 C4          6.3820  -27.2170    0.8940 C.3       1 UNK         0.0000
     15 C5          4.7950  -26.7210    4.2730 C.3       1 UNK         0.0000
     16 C6          5.8440  -26.2010    5.2570 C.3       1 UNK         0.0000
     17 C7          5.6750  -26.4770   -1.3010 C.3       1 UNK         0.0000
     18 C8          6.0210  -24.6930    5.0660 C.3       1 UNK         0.0000
     19 C9          7.8920  -24.4700    3.6160 C.ar      1 UNK         0.0000
     20 C10         8.9900  -25.2960    3.3420 C.ar      1 UNK         0.0000
     21 C11         8.9090  -24.6450    1.0390 C.ar      1 UNK         0.0000
     22 C12         7.2990  -23.7320    2.6160 C.ar      1 UNK         0.0000
     23 C13         7.7990  -23.8080    1.3070 C.ar      1 UNK         0.0000
     24 C14         9.4940  -25.3860    2.0770 C.ar      1 UNK         0.0000
     25 C15         9.4100  -24.7180   -0.2810 C.ar      1 UNK         0.0000
     26 C16         8.7740  -23.9490   -1.2670 C.ar      1 UNK         0.0000
     27 C17         7.6780  -23.1450   -0.9110 C.ar      1 UNK         0.0000
     28 C18        10.3230  -26.9050   -0.6980 C.ar      1 UNK         0.0000
     29 C19         9.2650  -27.4230   -1.4330 C.ar      1 UNK         0.0000
     30 C20        10.9220  -25.7210    4.6630 C.3       1 UNK         0.0000
     31 C21        11.2200  -27.7650   -0.0750 C.ar      1 UNK         0.0000
     32 C22         9.1020  -28.7950   -1.5380 C.ar      1 UNK         0.0000
     33 C23         9.2360  -23.9820   -2.6220 C.1       1 UNK         0.0000
     34 C24        11.0520  -29.1330   -0.1770 C.ar      1 UNK         0.0000
     35 C25         9.9970  -29.6500   -0.9080 C.ar      1 UNK         0.0000
     36 C26         8.1870  -29.2740   -3.6800 C.3       1 UNK         0.0000
     37 H1          3.3560  -26.7860    2.0010 H         1 UNK         0.0000
     38 H2          3.6230  -25.1110    2.5430 H         1 UNK         0.0000
     39 H3          6.7280  -27.8920    2.9110 H         1 UNK         0.0000
     40 H4          5.1740  -28.4120    2.2160 H         1 UNK         0.0000
     41 H5          5.2970  -24.7840    0.7560 H         1 UNK         0.0000
     42 H6          3.7430  -25.3050    0.0610 H         1 UNK         0.0000
     43 H7          7.1130  -26.4120    0.9700 H         1 UNK         0.0000
     44 H8          6.8480  -28.0860    0.4300 H         1 UNK         0.0000
     45 H9          4.6850  -27.7980    4.3950 H         1 UNK         0.0000
     46 H10         3.8400  -26.2330    4.4690 H         1 UNK         0.0000
     47 H11         6.7930  -26.7040    5.0760 H         1 UNK         0.0000
     48 H12         5.5160  -26.4010    6.2780 H         1 UNK         0.0000
     49 H13         5.2320  -25.5360   -1.6250 H         1 UNK         0.0000
     50 H14         6.7610  -26.3980   -1.3350 H         1 UNK         0.0000
     51 H15         5.3470  -27.2800   -1.9620 H         1 UNK         0.0000
     52 H16         5.6500  -24.1700    5.9470 H         1 UNK         0.0000
     53 H17         5.4610  -24.3700    4.1880 H         1 UNK         0.0000
     54 H18         6.4540  -23.0990    2.8380 H         1 UNK         0.0000
     55 H19        10.3410  -26.0250    1.8740 H         1 UNK         0.0000
     56 H20        11.3630  -25.1250   -0.7330 H         1 UNK         0.0000
     57 H21         7.1900  -22.5530   -1.6700 H         1 UNK         0.0000
     58 H22         8.5690  -26.7570   -1.9220 H         1 UNK         0.0000
     59 H23        11.2340  -26.3190    5.5180 H         1 UNK         0.0000
     60 H24        11.5520  -25.9560    3.8050 H         1 UNK         0.0000
     61 H25        11.0170  -24.6620    4.9060 H         1 UNK         0.0000
     62 H26        11.7480  -29.8000    0.3110 H         1 UNK         0.0000
     63 H27         8.1830  -30.2920   -4.0670 H         1 UNK         0.0000
     64 H28         7.3500  -28.7190   -4.1030 H         1 UNK         0.0000
     65 H29         9.1230  -28.7850   -3.9540 H         1 UNK         0.0000
@<TRIPOS>BOND
     1    1   31 1
     2    2   35 1
     3    3   18 1
     4    3   19 1
     5    4   20 1
     6    4   30 1
     7    5   32 1
     8    5   36 1
     9    6   11 1
    10    6   12 1
    11    6   15 1
    12    7   13 1
    13    7   14 1
    14    7   17 1
    15    8   25 1
    16    8   28 1
    17    8   56 1
    18    9   23 ar
    19    9   27 ar
    20   10   33 3
    21   11   13 1
    22   11   37 1
    23   11   38 1
    24   12   14 1
    25   12   39 1
    26   12   40 1
    27   13   41 1
    28   13   42 1
    29   14   43 1
    30   14   44 1
    31   15   16 1
    32   15   45 1
    33   15   46 1
    34   16   18 1
    35   16   47 1
    36   16   48 1
    37   17   49 1
    38   17   50 1
    39   17   51 1
    40   18   52 1
    41   18   53 1
    42   19   20 ar
    43   19   22 ar
    44   20   24 ar
    45   21   23 ar
    46   21   24 ar
    47   21   25 ar
    48   22   23 ar
    49   22   54 1
    50   24   55 1
    51   25   26 ar
    52   26   27 ar
    53   26   33 1
    54   27   57 1
    55   28   29 ar
    56   28   31 ar
    57   29   32 ar
    58   29   58 1
    59   30   59 1
    60   30   60 1
    61   30   61 1
    62   31   34 ar
    63   32   35 ar
    64   34   35 ar
    65   34   62 1
    66   36   63 1
    67   36   64 1
    68   36   65 1
