@<TRIPOS>MOLECULE
5328940
   65    68     0     0     0
SMALL
NO_CHARGES

@<TRIPOS>ATOM
      1 Cl1         3.6220  -22.8240   -1.4340 Cl        1 UNK         0.0000
      2 Cl2         2.5130  -27.9130   -2.8650 Cl        1 UNK         0.0000
      3 O1         10.6000  -23.1170   -3.7950 O.3       1 UNK         0.0000
      4 O2          7.9020  -22.7210   -4.1240 O.3       1 UNK         0.0000
      5 O3          4.7370  -28.5720   -1.0370 O.3       1 UNK         0.0000
      6 N1          9.9000  -27.2410   -3.8730 N.3       1 UNK         0.0000
      7 N2          8.9200  -27.5370   -1.2150 N.3       1 UNK         0.0000
      8 N3          5.7450  -24.0640    0.2380 N.pl3     1 UNK         0.0000
      9 N4          9.8470  -24.6240    0.6440 N.ar      1 UNK         0.0000
     10 N5          6.1560  -25.2960    3.5600 N.1       1 UNK         0.0000
     11 C1          8.5370  -26.8160   -3.5240 C.3       1 UNK         0.0000
     12 C2         10.8020  -27.1030   -2.7200 C.3       1 UNK         0.0000
     13 C3          8.0180  -27.6740   -2.3680 C.3       1 UNK         0.0000
     14 C4         10.2830  -27.9610   -1.5650 C.3       1 UNK         0.0000
     15 C5         10.4040  -26.4900   -5.0300 C.3       1 UNK         0.0000
     16 C6         11.2590  -25.3170   -4.5450 C.3       1 UNK         0.0000
     17 C7          8.4150  -28.2870   -0.0590 C.3       1 UNK         0.0000
     18 C8         10.5780  -24.0000   -4.9170 C.3       1 UNK         0.0000
     19 C9          9.7500  -23.3960   -2.7720 C.ar      1 UNK         0.0000
     20 C10         8.3740  -23.1940   -2.9390 C.ar      1 UNK         0.0000
     21 C11         7.9870  -23.9570   -0.7020 C.ar      1 UNK         0.0000
     22 C12        10.2520  -23.8740   -1.5820 C.ar      1 UNK         0.0000
     23 C13         9.3760  -24.1630   -0.5250 C.ar      1 UNK         0.0000
     24 C14         7.5020  -23.4680   -1.9250 C.ar      1 UNK         0.0000
     25 C15         7.1080  -24.2490    0.3650 C.ar      1 UNK         0.0000
     26 C16         7.6640  -24.7340    1.5580 C.ar      1 UNK         0.0000
     27 C17         9.0550  -24.9080    1.6470 C.ar      1 UNK         0.0000
     28 C18         4.9810  -24.9770   -0.4960 C.ar      1 UNK         0.0000
     29 C19         5.2420  -26.3370   -0.4000 C.ar      1 UNK         0.0000
     30 C20         6.8580  -23.4700   -4.7510 C.3       1 UNK         0.0000
     31 C21         3.9550  -24.5250   -1.3180 C.ar      1 UNK         0.0000
     32 C22         4.4830  -27.2400   -1.1280 C.ar      1 UNK         0.0000
     33 C23         6.8240  -25.0480    2.6750 C.1       1 UNK         0.0000
     34 C24         3.2040  -25.4270   -2.0470 C.ar      1 UNK         0.0000
     35 C25         3.4640  -26.7820   -1.9520 C.ar      1 UNK         0.0000
     36 C26         4.4040  -29.2130    0.1970 C.3       1 UNK         0.0000
     37 H1          8.5480  -25.7680   -3.2230 H         1 UNK         0.0000
     38 H2          7.8850  -26.9390   -4.3890 H         1 UNK         0.0000
     39 H3         11.8010  -27.4350   -3.0010 H         1 UNK         0.0000
     40 H4         10.8390  -26.0590   -2.4100 H         1 UNK         0.0000
     41 H5          7.9810  -28.7180   -2.6780 H         1 UNK         0.0000
     42 H6          7.0180  -27.3420   -2.0880 H         1 UNK         0.0000
     43 H7         10.2720  -29.0090   -1.8660 H         1 UNK         0.0000
     44 H8         10.9350  -27.8380   -0.7000 H         1 UNK         0.0000
     45 H9          9.5640  -26.1100   -5.6100 H         1 UNK         0.0000
     46 H10        11.0100  -27.1460   -5.6540 H         1 UNK         0.0000
     47 H11        12.2410  -25.3650   -5.0150 H         1 UNK         0.0000
     48 H12        11.3730  -25.3740   -3.4620 H         1 UNK         0.0000
     49 H13         7.3290  -28.3500   -0.1120 H         1 UNK         0.0000
     50 H14         8.8370  -29.2920   -0.0640 H         1 UNK         0.0000
     51 H15         8.7050  -27.7750    0.8600 H         1 UNK         0.0000
     52 H16         9.5460  -24.1940   -5.2070 H         1 UNK         0.0000
     53 H17        11.1100  -23.5390   -5.7520 H         1 UNK         0.0000
     54 H18        11.3140  -24.0260   -1.4640 H         1 UNK         0.0000
     55 H19         6.4430  -23.3100   -2.0630 H         1 UNK         0.0000
     56 H20         5.3180  -23.3010    0.6570 H         1 UNK         0.0000
     57 H21         9.4820  -25.2810    2.5650 H         1 UNK         0.0000
     58 H22         6.0360  -26.6920    0.2410 H         1 UNK         0.0000
     59 H23         5.8950  -23.1700   -4.3370 H         1 UNK         0.0000
     60 H24         6.8680  -23.2770   -5.8240 H         1 UNK         0.0000
     61 H25         7.0160  -24.5330   -4.5710 H         1 UNK         0.0000
     62 H26         2.4100  -25.0730   -2.6880 H         1 UNK         0.0000
     63 H27         3.3200  -29.2920    0.2830 H         1 UNK         0.0000
     64 H28         4.8460  -30.2090    0.2200 H         1 UNK         0.0000
     65 H29         4.7920  -28.6230    1.0280 H         1 UNK         0.0000
@<TRIPOS>BOND
     1    1   31 1
     2    2   35 1
     3    3   18 1
     4    3   19 1
     5    4   20 1
     6    4   30 1
     7    5   32 1
     8    5   36 1
     9    6   11 1
    10    6   12 1
    11    6   15 1
    12    7   13 1
    13    7   14 1
    14    7   17 1
    15    8   25 1
    16    8   28 1
    17    8   56 1
    18    9   23 ar
    19    9   27 ar
    20   10   33 3
    21   11   13 1
    22   11   37 1
    23   11   38 1
    24   12   14 1
    25   12   39 1
    26   12   40 1
    27   13   41 1
    28   13   42 1
    29   14   43 1
    30   14   44 1
    31   15   16 1
    32   15   45 1
    33   15   46 1
    34   16   18 1
    35   16   47 1
    36   16   48 1
    37   17   49 1
    38   17   50 1
    39   17   51 1
    40   18   52 1
    41   18   53 1
    42   19   20 ar
    43   19   22 ar
    44   20   24 ar
    45   21   23 ar
    46   21   24 ar
    47   21   25 ar
    48   22   23 ar
    49   22   54 1
    50   24   55 1
    51   25   26 ar
    52   26   27 ar
    53   26   33 1
    54   27   57 1
    55   28   29 ar
    56   28   31 ar
    57   29   32 ar
    58   29   58 1
    59   30   59 1
    60   30   60 1
    61   30   61 1
    62   31   34 ar
    63   32   35 ar
    64   34   35 ar
    65   34   62 1
    66   36   63 1
    67   36   64 1
    68   36   65 1
