@<TRIPOS>MOLECULE
25174101
   55    58     0     0     0
SMALL
NO_CHARGES

@<TRIPOS>ATOM
      1 O1          0.3660   -4.4430   -0.8770 O.2       1 UNK         0.0000
      2 N1          3.8970   -3.9840   -1.7540 N.pl3     1 UNK         0.0000
      3 N2          4.1280   -3.8600   -3.1300 N.2       1 UNK         0.0000
      4 N3          2.1220   -3.2540   -0.2180 N.am      1 UNK         0.0000
      5 N4          0.3480   -3.7250    1.2240 N.am      1 UNK         0.0000
      6 N5          7.4260   -3.8210    1.5360 N.pl3     1 UNK         0.0000
      7 C1          2.9870   -2.8380   -5.1150 C.3       1 UNK         0.0000
      8 C2          3.1340   -3.1920   -3.6580 C.2       1 UNK         0.0000
      9 C3          2.5770   -1.3700   -5.2440 C.3       1 UNK         0.0000
     10 C4          4.3190   -3.0610   -5.8320 C.3       1 UNK         0.0000
     11 C5          1.9130   -3.7250   -5.7490 C.3       1 UNK         0.0000
     12 C6          2.2280   -2.8710   -2.6430 C.2       1 UNK         0.0000
     13 C7          2.7190   -3.3620   -1.4730 C.2       1 UNK         0.0000
     14 C8          4.7290   -4.6320   -0.8320 C.ar      1 UNK         0.0000
     15 C9          5.6660   -3.9050   -0.1110 C.ar      1 UNK         0.0000
     16 C10         4.6220   -6.0040   -0.6430 C.ar      1 UNK         0.0000
     17 C11         0.9240   -3.8290    0.0110 C.2       1 UNK         0.0000
     18 C12        -0.8340   -4.4170    1.4980 C.ar      1 UNK         0.0000
     19 C13        -0.9060   -5.2970    2.5980 C.ar      1 UNK         0.0000
     20 C14         6.4850   -4.5500    0.8050 C.ar      1 UNK         0.0000
     21 C15        -2.1160   -5.9890    2.8550 C.ar      1 UNK         0.0000
     22 C16         5.4430   -6.6450    0.2660 C.ar      1 UNK         0.0000
     23 C17         6.3720   -5.9240    0.9890 C.ar      1 UNK         0.0000
     24 C18        -1.9410   -4.2450    0.6940 C.ar      1 UNK         0.0000
     25 C19         0.1970   -5.5010    3.4410 C.ar      1 UNK         0.0000
     26 C20        -3.2210   -5.7870    2.0120 C.ar      1 UNK         0.0000
     27 C21        -3.1230   -4.9310    0.9570 C.ar      1 UNK         0.0000
     28 C22        -2.1870   -6.8660    3.9510 C.ar      1 UNK         0.0000
     29 C23         0.0930   -6.3580    4.4940 C.ar      1 UNK         0.0000
     30 C24        -1.0960   -7.0390    4.7480 C.ar      1 UNK         0.0000
     31 H1          2.1820   -1.0180   -4.2900 H         1 UNK         0.0000
     32 H2          3.4470   -0.7720   -5.5190 H         1 UNK         0.0000
     33 H3          1.8110   -1.2720   -6.0120 H         1 UNK         0.0000
     34 H4          4.6050   -2.1510   -6.3600 H         1 UNK         0.0000
     35 H5          5.0880   -3.3140   -5.1010 H         1 UNK         0.0000
     36 H6          4.2150   -3.8780   -6.5460 H         1 UNK         0.0000
     37 H7          2.3280   -4.7130   -5.9490 H         1 UNK         0.0000
     38 H8          1.0680   -3.8190   -5.0660 H         1 UNK         0.0000
     39 H9          1.5770   -3.2770   -6.6840 H         1 UNK         0.0000
     40 H10         1.3040   -2.3260   -2.7660 H         1 UNK         0.0000
     41 H11         2.5690   -2.7650    0.4920 H         1 UNK         0.0000
     42 H12         5.7530   -2.8390   -0.2600 H         1 UNK         0.0000
     43 H13         3.8970   -6.5710   -1.2080 H         1 UNK         0.0000
     44 H14         0.7530   -3.1690    1.9080 H         1 UNK         0.0000
     45 H15         5.3580   -7.7110    0.4110 H         1 UNK         0.0000
     46 H16         7.0120   -6.4260    1.6990 H         1 UNK         0.0000
     47 H17        -1.8900   -3.5720   -0.1490 H         1 UNK         0.0000
     48 H18         1.1250   -4.9790    3.2560 H         1 UNK         0.0000
     49 H19        -4.1460   -6.3120    2.1980 H         1 UNK         0.0000
     50 H20        -3.9780   -4.7820    0.3140 H         1 UNK         0.0000
     51 H21        -3.1020   -7.4000    4.1610 H         1 UNK         0.0000
     52 H22         0.9430   -6.5120    5.1410 H         1 UNK         0.0000
     53 H23        -1.1540   -7.7130    5.5890 H         1 UNK         0.0000
     54 H24         7.9420   -4.2570    2.2320 H         1 UNK         0.0000
     55 H25         7.5620   -2.8790    1.3480 H         1 UNK         0.0000
@<TRIPOS>BOND
     1    1   17 2
     2    2    3 1
     3    2   13 1
     4    2   14 1
     5    3    8 2
     6    4   13 1
     7    4   17 am
     8    4   41 1
     9    5   17 am
    10    5   18 1
    11    5   44 1
    12    6   20 1
    13    6   54 1
    14    6   55 1
    15    7    8 1
    16    7    9 1
    17    7   10 1
    18    7   11 1
    19    8   12 1
    20    9   31 1
    21    9   32 1
    22    9   33 1
    23   10   34 1
    24   10   35 1
    25   10   36 1
    26   11   37 1
    27   11   38 1
    28   11   39 1
    29   12   13 2
    30   12   40 1
    31   14   15 ar
    32   14   16 ar
    33   15   20 ar
    34   15   42 1
    35   16   22 ar
    36   16   43 1
    37   18   19 ar
    38   18   24 ar
    39   19   21 ar
    40   19   25 ar
    41   20   23 ar
    42   21   26 ar
    43   21   28 ar
    44   22   23 ar
    45   22   45 1
    46   23   46 1
    47   24   27 ar
    48   24   47 1
    49   25   29 ar
    50   25   48 1
    51   26   27 ar
    52   26   49 1
    53   27   50 1
    54   28   30 ar
    55   28   51 1
    56   29   30 ar
    57   29   52 1
    58   30   53 1
