@<TRIPOS>MOLECULE
25174101
   55    58     0     0     0
SMALL
NO_CHARGES

@<TRIPOS>ATOM
      1 O1          2.2050   -3.6980   -2.7160 O.2       1 UNK         0.0000
      2 N1          2.7160   -4.9250    0.4340 N.pl3     1 UNK         0.0000
      3 N2          3.8820   -5.6360    0.7410 N.2       1 UNK         0.0000
      4 N3          2.2240   -2.7940   -0.6880 N.am      1 UNK         0.0000
      5 N4          0.9910   -1.8590   -2.4360 N.am      1 UNK         0.0000
      6 N5         -0.7640   -5.7720    3.6710 N.pl3     1 UNK         0.0000
      7 C1          6.3550   -5.3610    0.4280 C.3       1 UNK         0.0000
      8 C2          4.9100   -4.9530    0.3040 C.2       1 UNK         0.0000
      9 C3          6.9120   -4.8640    1.7640 C.3       1 UNK         0.0000
     10 C4          6.4620   -6.8850    0.3650 C.3       1 UNK         0.0000
     11 C5          7.1590   -4.7460   -0.7200 C.3       1 UNK         0.0000
     12 C6          4.4390   -3.7860   -0.3040 C.2       1 UNK         0.0000
     13 C7          3.0820   -3.7830   -0.2090 C.2       1 UNK         0.0000
     14 C8          1.4050   -5.3200    0.7340 C.ar      1 UNK         0.0000
     15 C9          0.9740   -5.3540    2.0520 C.ar      1 UNK         0.0000
     16 C10         0.5370   -5.6830   -0.2880 C.ar      1 UNK         0.0000
     17 C11         1.8210   -2.8150   -1.9740 C.2       1 UNK         0.0000
     18 C12         0.4800   -1.9450   -3.7330 C.ar      1 UNK         0.0000
     19 C13         1.1790   -1.3670   -4.8140 C.ar      1 UNK         0.0000
     20 C14        -0.3250   -5.7410    2.3450 C.ar      1 UNK         0.0000
     21 C15         0.6400   -1.4660   -6.1210 C.ar      1 UNK         0.0000
     22 C16        -0.7560   -6.0730    0.0070 C.ar      1 UNK         0.0000
     23 C17        -1.1900   -6.1030    1.3170 C.ar      1 UNK         0.0000
     24 C18        -0.7120   -2.5950   -3.9670 C.ar      1 UNK         0.0000
     25 C19         2.3960   -0.6960   -4.6190 C.ar      1 UNK         0.0000
     26 C20        -0.5790   -2.1370   -6.3170 C.ar      1 UNK         0.0000
     27 C21        -1.2310   -2.6850   -5.2560 C.ar      1 UNK         0.0000
     28 C22         1.3370   -0.8910   -7.1970 C.ar      1 UNK         0.0000
     29 C23         3.0440   -0.1510   -5.6850 C.ar      1 UNK         0.0000
     30 C24         2.5150   -0.2470   -6.9710 C.ar      1 UNK         0.0000
     31 H1          7.2700   -5.7130    2.3460 H         1 UNK         0.0000
     32 H2          7.7380   -4.1760    1.5800 H         1 UNK         0.0000
     33 H3          6.1270   -4.3500    2.3170 H         1 UNK         0.0000
     34 H4          7.3610   -7.2090    0.8920 H         1 UNK         0.0000
     35 H5          5.5860   -7.3320    0.8340 H         1 UNK         0.0000
     36 H6          6.5180   -7.2030   -0.6760 H         1 UNK         0.0000
     37 H7          6.7990   -5.1430   -1.6690 H         1 UNK         0.0000
     38 H8          7.0360   -3.6630   -0.7100 H         1 UNK         0.0000
     39 H9          8.2130   -4.9940   -0.5990 H         1 UNK         0.0000
     40 H10         5.0460   -3.0200   -0.7650 H         1 UNK         0.0000
     41 H11         1.9160   -2.0890   -0.0950 H         1 UNK         0.0000
     42 H12         1.6490   -5.0760    2.8480 H         1 UNK         0.0000
     43 H13         0.8730   -5.6610   -1.3140 H         1 UNK         0.0000
     44 H14         0.7490   -1.1110   -1.8690 H         1 UNK         0.0000
     45 H15        -1.4290   -6.3540   -0.7900 H         1 UNK         0.0000
     46 H16        -2.2000   -6.4080    1.5450 H         1 UNK         0.0000
     47 H17        -1.2500   -3.0380   -3.1430 H         1 UNK         0.0000
     48 H18         2.8170   -0.6140   -3.6280 H         1 UNK         0.0000
     49 H19        -0.9990   -2.2140   -7.3100 H         1 UNK         0.0000
     50 H20        -2.1680   -3.1980   -5.4160 H         1 UNK         0.0000
     51 H21         0.9390   -0.9580   -8.1990 H         1 UNK         0.0000
     52 H22         3.9800    0.3640   -5.5320 H         1 UNK         0.0000
     53 H23         3.0480    0.1950   -7.8000 H         1 UNK         0.0000
     54 H24        -1.2800   -6.5280    3.9930 H         1 UNK         0.0000
     55 H25        -0.5510   -5.0390    4.2690 H         1 UNK         0.0000
@<TRIPOS>BOND
     1    1   17 2
     2    2    3 1
     3    2   13 1
     4    2   14 1
     5    3    8 2
     6    4   13 1
     7    4   17 am
     8    4   41 1
     9    5   17 am
    10    5   18 1
    11    5   44 1
    12    6   20 1
    13    6   54 1
    14    6   55 1
    15    7    8 1
    16    7    9 1
    17    7   10 1
    18    7   11 1
    19    8   12 1
    20    9   31 1
    21    9   32 1
    22    9   33 1
    23   10   34 1
    24   10   35 1
    25   10   36 1
    26   11   37 1
    27   11   38 1
    28   11   39 1
    29   12   13 2
    30   12   40 1
    31   14   15 ar
    32   14   16 ar
    33   15   20 ar
    34   15   42 1
    35   16   22 ar
    36   16   43 1
    37   18   19 ar
    38   18   24 ar
    39   19   21 ar
    40   19   25 ar
    41   20   23 ar
    42   21   26 ar
    43   21   28 ar
    44   22   23 ar
    45   22   45 1
    46   23   46 1
    47   24   27 ar
    48   24   47 1
    49   25   29 ar
    50   25   48 1
    51   26   27 ar
    52   26   49 1
    53   27   50 1
    54   28   30 ar
    55   28   51 1
    56   29   30 ar
    57   29   52 1
    58   30   53 1
