@<TRIPOS>MOLECULE
25174101
   55    58     0     0     0
SMALL
NO_CHARGES

@<TRIPOS>ATOM
      1 O1         -1.5920   -4.1690   -2.5770 O.2       1 UNK         0.0000
      2 N1         -4.0180   -5.2940   -0.3410 N.pl3     1 UNK         0.0000
      3 N2         -5.0600   -6.0950   -0.8260 N.2       1 UNK         0.0000
      4 N3         -2.9320   -3.2180   -1.0840 N.am      1 UNK         0.0000
      5 N4         -0.9010   -2.2480   -1.7050 N.am      1 UNK         0.0000
      6 N5         -3.7950   -5.9280    4.4400 N.pl3     1 UNK         0.0000
      7 C1         -6.6390   -6.1010   -2.7730 C.3       1 UNK         0.0000
      8 C2         -5.5150   -5.5580   -1.9300 C.2       1 UNK         0.0000
      9 C3         -7.8680   -6.3380   -1.8930 C.3       1 UNK         0.0000
     10 C4         -6.9850   -5.0950   -3.8720 C.3       1 UNK         0.0000
     11 C5         -6.2050   -7.4230   -3.4100 C.3       1 UNK         0.0000
     12 C6         -4.7870   -4.3930   -2.1880 C.2       1 UNK         0.0000
     13 C7         -3.8630   -4.2500   -1.2000 C.2       1 UNK         0.0000
     14 C8         -3.2690   -5.5270    0.8200 C.ar      1 UNK         0.0000
     15 C9         -3.9030   -5.6070    2.0520 C.ar      1 UNK         0.0000
     16 C10        -1.8900   -5.6720    0.7410 C.ar      1 UNK         0.0000
     17 C11        -1.8000   -3.2450   -1.8160 C.2       1 UNK         0.0000
     18 C12         0.2130   -2.2140   -2.5450 C.ar      1 UNK         0.0000
     19 C13         1.4430   -2.7590   -2.1210 C.ar      1 UNK         0.0000
     20 C14        -3.1590   -5.8420    3.1980 C.ar      1 UNK         0.0000
     21 C15         2.5600   -2.7130   -2.9910 C.ar      1 UNK         0.0000
     22 C16        -1.1500   -5.9010    1.8850 C.ar      1 UNK         0.0000
     23 C17        -1.7790   -5.9870    3.1120 C.ar      1 UNK         0.0000
     24 C18         0.1200   -1.6480   -3.7980 C.ar      1 UNK         0.0000
     25 C19         1.5810   -3.3450   -0.8530 C.ar      1 UNK         0.0000
     26 C20         2.4240   -2.1260   -4.2610 C.ar      1 UNK         0.0000
     27 C21         1.2250   -1.6080   -4.6440 C.ar      1 UNK         0.0000
     28 C22         3.7850   -3.2560   -2.5670 C.ar      1 UNK         0.0000
     29 C23         2.7830   -3.8620   -0.4750 C.ar      1 UNK         0.0000
     30 C24         3.8820   -3.8160   -1.3300 C.ar      1 UNK         0.0000
     31 H1         -7.5870   -6.2390   -0.8440 H         1 UNK         0.0000
     32 H2         -8.6360   -5.6020   -2.1340 H         1 UNK         0.0000
     33 H3         -8.2570   -7.3400   -2.0730 H         1 UNK         0.0000
     34 H4         -6.0650   -4.7060   -4.3110 H         1 UNK         0.0000
     35 H5         -7.5760   -5.5880   -4.6440 H         1 UNK         0.0000
     36 H6         -7.5590   -4.2730   -3.4450 H         1 UNK         0.0000
     37 H7         -5.6950   -7.2230   -4.3530 H         1 UNK         0.0000
     38 H8         -5.5280   -7.9470   -2.7360 H         1 UNK         0.0000
     39 H9         -7.0820   -8.0410   -3.5970 H         1 UNK         0.0000
     40 H10        -4.9320   -3.7260   -3.0260 H         1 UNK         0.0000
     41 H11        -3.0990   -2.4790   -0.4770 H         1 UNK         0.0000
     42 H12        -4.9750   -5.4900    2.1160 H         1 UNK         0.0000
     43 H13        -1.3950   -5.6050   -0.2170 H         1 UNK         0.0000
     44 H14        -1.0280   -1.5530   -1.0400 H         1 UNK         0.0000
     45 H15        -0.0780   -6.0140    1.8210 H         1 UNK         0.0000
     46 H16        -1.1990   -6.1660    4.0050 H         1 UNK         0.0000
     47 H17        -0.8200   -1.2290   -4.1270 H         1 UNK         0.0000
     48 H18         0.7360   -3.3870   -0.1800 H         1 UNK         0.0000
     49 H19         3.2710   -2.0820   -4.9290 H         1 UNK         0.0000
     50 H20         1.1290   -1.1580   -5.6220 H         1 UNK         0.0000
     51 H21         4.6460   -3.2280   -3.2190 H         1 UNK         0.0000
     52 H22         2.8850   -4.3120    0.5000 H         1 UNK         0.0000
     53 H23         4.8250   -4.2330   -1.0070 H         1 UNK         0.0000
     54 H24        -4.7640   -5.9340    4.4880 H         1 UNK         0.0000
     55 H25        -3.2670   -5.9820    5.2520 H         1 UNK         0.0000
@<TRIPOS>BOND
     1    1   17 2
     2    2    3 1
     3    2   13 1
     4    2   14 1
     5    3    8 2
     6    4   13 1
     7    4   17 am
     8    4   41 1
     9    5   17 am
    10    5   18 1
    11    5   44 1
    12    6   20 1
    13    6   54 1
    14    6   55 1
    15    7    8 1
    16    7    9 1
    17    7   10 1
    18    7   11 1
    19    8   12 1
    20    9   31 1
    21    9   32 1
    22    9   33 1
    23   10   34 1
    24   10   35 1
    25   10   36 1
    26   11   37 1
    27   11   38 1
    28   11   39 1
    29   12   13 2
    30   12   40 1
    31   14   15 ar
    32   14   16 ar
    33   15   20 ar
    34   15   42 1
    35   16   22 ar
    36   16   43 1
    37   18   19 ar
    38   18   24 ar
    39   19   21 ar
    40   19   25 ar
    41   20   23 ar
    42   21   26 ar
    43   21   28 ar
    44   22   23 ar
    45   22   45 1
    46   23   46 1
    47   24   27 ar
    48   24   47 1
    49   25   29 ar
    50   25   48 1
    51   26   27 ar
    52   26   49 1
    53   27   50 1
    54   28   30 ar
    55   28   51 1
    56   29   30 ar
    57   29   52 1
    58   30   53 1
