@<TRIPOS>MOLECULE
25174101
   55    58     0     0     0
SMALL
NO_CHARGES

@<TRIPOS>ATOM
      1 O1          1.0910   -4.7050   -0.9130 O.2       1 UNK         0.0000
      2 N1          4.0820   -3.8520   -1.9910 N.pl3     1 UNK         0.0000
      3 N2          4.4850   -3.8980   -3.3310 N.2       1 UNK         0.0000
      4 N3          2.2260   -2.8020   -0.7680 N.am      1 UNK         0.0000
      5 N4          0.5960   -3.3800    0.8000 N.am      1 UNK         0.0000
      6 N5          7.4050   -3.7640    1.5110 N.pl3     1 UNK         0.0000
      7 C1          3.6970   -2.9930   -5.5330 C.3       1 UNK         0.0000
      8 C2          3.6340   -3.2010   -4.0420 C.2       1 UNK         0.0000
      9 C3          2.5990   -3.8170   -6.2090 C.3       1 UNK         0.0000
     10 C4          3.4910   -1.5110   -5.8510 C.3       1 UNK         0.0000
     11 C5          5.0640   -3.4410   -6.0530 C.3       1 UNK         0.0000
     12 C6          2.6550   -2.6910   -3.1850 C.2       1 UNK         0.0000
     13 C7          2.9520   -3.0980   -1.9210 C.2       1 UNK         0.0000
     14 C8          4.7290   -4.4720   -0.9130 C.ar      1 UNK         0.0000
     15 C9          5.7480   -3.8120   -0.2410 C.ar      1 UNK         0.0000
     16 C10         4.3540   -5.7510   -0.5200 C.ar      1 UNK         0.0000
     17 C11         1.2970   -3.6660   -0.3150 C.2       1 UNK         0.0000
     18 C12        -0.2820   -4.3250    1.3350 C.ar      1 UNK         0.0000
     19 C13        -1.5770   -4.4810    0.7960 C.ar      1 UNK         0.0000
     20 C14         6.3810   -4.4280    0.8280 C.ar      1 UNK         0.0000
     21 C15        -2.4500   -5.4450    1.3560 C.ar      1 UNK         0.0000
     22 C16         4.9910   -6.3640    0.5420 C.ar      1 UNK         0.0000
     23 C17         6.0020   -5.7080    1.2170 C.ar      1 UNK         0.0000
     24 C18         0.1090   -5.1140    2.3950 C.ar      1 UNK         0.0000
     25 C19        -2.0150   -3.6980   -0.2830 C.ar      1 UNK         0.0000
     26 C20        -2.0130   -6.2290    2.4380 C.ar      1 UNK         0.0000
     27 C21        -0.7590   -6.0580    2.9380 C.ar      1 UNK         0.0000
     28 C22        -3.7390   -5.6000    0.8190 C.ar      1 UNK         0.0000
     29 C23        -3.2710   -3.8750   -0.7790 C.ar      1 UNK         0.0000
     30 C24        -4.1310   -4.8230   -0.2280 C.ar      1 UNK         0.0000
     31 H1          3.0360   -4.4180   -7.0070 H         1 UNK         0.0000
     32 H2          2.1330   -4.4740   -5.4740 H         1 UNK         0.0000
     33 H3          1.8470   -3.1490   -6.6270 H         1 UNK         0.0000
     34 H4          2.4280   -1.2730   -5.8040 H         1 UNK         0.0000
     35 H5          4.0330   -0.9050   -5.1250 H         1 UNK         0.0000
     36 H6          3.8670   -1.2990   -6.8520 H         1 UNK         0.0000
     37 H7          5.6820   -3.7700   -5.2170 H         1 UNK         0.0000
     38 H8          4.9340   -4.2660   -6.7540 H         1 UNK         0.0000
     39 H9          5.5520   -2.6080   -6.5590 H         1 UNK         0.0000
     40 H10         1.8130   -2.0790   -3.4750 H         1 UNK         0.0000
     41 H11         2.3910   -1.9730   -0.2900 H         1 UNK         0.0000
     42 H12         6.0430   -2.8200   -0.5480 H         1 UNK         0.0000
     43 H13         3.5650   -6.2670   -1.0470 H         1 UNK         0.0000
     44 H14         0.7010   -2.5180    1.2310 H         1 UNK         0.0000
     45 H15         4.6990   -7.3580    0.8460 H         1 UNK         0.0000
     46 H16         6.4980   -6.1890    2.0470 H         1 UNK         0.0000
     47 H17         1.0990   -4.9980    2.8110 H         1 UNK         0.0000
     48 H18        -1.3580   -2.9590   -0.7200 H         1 UNK         0.0000
     49 H19        -2.6730   -6.9640    2.8740 H         1 UNK         0.0000
     50 H20        -0.4310   -6.6640    3.7690 H         1 UNK         0.0000
     51 H21        -4.4170   -6.3310    1.2350 H         1 UNK         0.0000
     52 H22        -3.6050   -3.2720   -1.6090 H         1 UNK         0.0000
     53 H23        -5.1220   -4.9440   -0.6390 H         1 UNK         0.0000
     54 H24         8.3270   -3.8820    1.2340 H         1 UNK         0.0000
     55 H25         7.1920   -3.1860    2.2600 H         1 UNK         0.0000
@<TRIPOS>BOND
     1    1   17 2
     2    2    3 1
     3    2   13 1
     4    2   14 1
     5    3    8 2
     6    4   13 1
     7    4   17 am
     8    4   41 1
     9    5   17 am
    10    5   18 1
    11    5   44 1
    12    6   20 1
    13    6   54 1
    14    6   55 1
    15    7    8 1
    16    7    9 1
    17    7   10 1
    18    7   11 1
    19    8   12 1
    20    9   31 1
    21    9   32 1
    22    9   33 1
    23   10   34 1
    24   10   35 1
    25   10   36 1
    26   11   37 1
    27   11   38 1
    28   11   39 1
    29   12   13 2
    30   12   40 1
    31   14   15 ar
    32   14   16 ar
    33   15   20 ar
    34   15   42 1
    35   16   22 ar
    36   16   43 1
    37   18   19 ar
    38   18   24 ar
    39   19   21 ar
    40   19   25 ar
    41   20   23 ar
    42   21   26 ar
    43   21   28 ar
    44   22   23 ar
    45   22   45 1
    46   23   46 1
    47   24   27 ar
    48   24   47 1
    49   25   29 ar
    50   25   48 1
    51   26   27 ar
    52   26   49 1
    53   27   50 1
    54   28   30 ar
    55   28   51 1
    56   29   30 ar
    57   29   52 1
    58   30   53 1
