@<TRIPOS>MOLECULE
25174101
   55    58     0     0     0
SMALL
NO_CHARGES

@<TRIPOS>ATOM
      1 O1          0.7750   -4.3120   -0.2260 O.2       1 UNK         0.0000
      2 N1          4.3430   -3.9640   -1.2670 N.pl3     1 UNK         0.0000
      3 N2          4.4700   -3.5090   -2.5850 N.2       1 UNK         0.0000
      4 N3          2.7290   -3.5980    0.5510 N.am      1 UNK         0.0000
      5 N4          1.0030   -4.2480    1.9820 N.am      1 UNK         0.0000
      6 N5          5.7480   -8.4570   -0.1950 N.pl3     1 UNK         0.0000
      7 C1          3.2200   -2.0020   -4.1520 C.3       1 UNK         0.0000
      8 C2          3.4660   -2.7090   -2.8440 C.2       1 UNK         0.0000
      9 C3          4.4210   -1.1130   -4.4840 C.3       1 UNK         0.0000
     10 C4          3.0260   -3.0340   -5.2630 C.3       1 UNK         0.0000
     11 C5          1.9630   -1.1370   -4.0350 C.3       1 UNK         0.0000
     12 C6          2.6590   -2.6280   -1.7060 C.2       1 UNK         0.0000
     13 C7          3.2200   -3.4050   -0.7400 C.2       1 UNK         0.0000
     14 C8          5.2170   -4.8400   -0.6080 C.ar      1 UNK         0.0000
     15 C9          5.0450   -6.2120   -0.7250 C.ar      1 UNK         0.0000
     16 C10         6.2530   -4.3350    0.1680 C.ar      1 UNK         0.0000
     17 C11         1.4770   -4.0620    0.7350 C.2       1 UNK         0.0000
     18 C12        -0.2480   -4.8380    2.1730 C.ar      1 UNK         0.0000
     19 C13        -0.4690   -5.7040    3.2650 C.ar      1 UNK         0.0000
     20 C14         5.9150   -7.0750   -0.0750 C.ar      1 UNK         0.0000
     21 C15        -1.7460   -6.2910    3.4390 C.ar      1 UNK         0.0000
     22 C16         7.1150   -5.1970    0.8180 C.ar      1 UNK         0.0000
     23 C17         6.9500   -6.5630    0.6990 C.ar      1 UNK         0.0000
     24 C18        -1.2790   -4.5780    1.2960 C.ar      1 UNK         0.0000
     25 C19         0.5530   -5.9940    4.1820 C.ar      1 UNK         0.0000
     26 C20        -2.7710   -6.0010    2.5210 C.ar      1 UNK         0.0000
     27 C21        -2.5300   -5.1620    1.4770 C.ar      1 UNK         0.0000
     28 C22        -1.9650   -7.1530    4.5270 C.ar      1 UNK         0.0000
     29 C23         0.3060   -6.8340    5.2250 C.ar      1 UNK         0.0000
     30 C24        -0.9500   -7.4120    5.3960 C.ar      1 UNK         0.0000
     31 H1          4.6600   -0.4900   -3.6220 H         1 UNK         0.0000
     32 H2          5.2800   -1.7390   -4.7300 H         1 UNK         0.0000
     33 H3          4.1790   -0.4780   -5.3360 H         1 UNK         0.0000
     34 H4          3.0860   -4.0380   -4.8410 H         1 UNK         0.0000
     35 H5          2.0500   -2.8920   -5.7250 H         1 UNK         0.0000
     36 H6          3.8050   -2.9100   -6.0150 H         1 UNK         0.0000
     37 H7          1.7610   -0.9290   -2.9840 H         1 UNK         0.0000
     38 H8          2.1160   -0.1980   -4.5670 H         1 UNK         0.0000
     39 H9          1.1160   -1.6670   -4.4690 H         1 UNK         0.0000
     40 H10         1.7530   -2.0490   -1.6100 H         1 UNK         0.0000
     41 H11         3.2900   -3.3990    1.3180 H         1 UNK         0.0000
     42 H12         4.2380   -6.6060   -1.3250 H         1 UNK         0.0000
     43 H13         6.3840   -3.2670    0.2630 H         1 UNK         0.0000
     44 H14         1.5310   -3.9730    2.7470 H         1 UNK         0.0000
     45 H15         7.9200   -4.8020    1.4200 H         1 UNK         0.0000
     46 H16         7.6250   -7.2350    1.2080 H         1 UNK         0.0000
     47 H17        -1.1140   -3.9160    0.4590 H         1 UNK         0.0000
     48 H18         1.5320   -5.5530    4.0610 H         1 UNK         0.0000
     49 H19        -3.7470   -6.4470    2.6430 H         1 UNK         0.0000
     50 H20        -3.3230   -4.9450    0.7760 H         1 UNK         0.0000
     51 H21        -2.9340   -7.6080    4.6730 H         1 UNK         0.0000
     52 H22         1.0940   -7.0550    5.9280 H         1 UNK         0.0000
     53 H23        -1.1210   -8.0750    6.2310 H         1 UNK         0.0000
     54 H24         5.8410   -9.0250    0.5860 H         1 UNK         0.0000
     55 H25         5.5390   -8.8470   -1.0580 H         1 UNK         0.0000
@<TRIPOS>BOND
     1    1   17 2
     2    2    3 1
     3    2   13 1
     4    2   14 1
     5    3    8 2
     6    4   13 1
     7    4   17 am
     8    4   41 1
     9    5   17 am
    10    5   18 1
    11    5   44 1
    12    6   20 1
    13    6   54 1
    14    6   55 1
    15    7    8 1
    16    7    9 1
    17    7   10 1
    18    7   11 1
    19    8   12 1
    20    9   31 1
    21    9   32 1
    22    9   33 1
    23   10   34 1
    24   10   35 1
    25   10   36 1
    26   11   37 1
    27   11   38 1
    28   11   39 1
    29   12   13 2
    30   12   40 1
    31   14   15 ar
    32   14   16 ar
    33   15   20 ar
    34   15   42 1
    35   16   22 ar
    36   16   43 1
    37   18   19 ar
    38   18   24 ar
    39   19   21 ar
    40   19   25 ar
    41   20   23 ar
    42   21   26 ar
    43   21   28 ar
    44   22   23 ar
    45   22   45 1
    46   23   46 1
    47   24   27 ar
    48   24   47 1
    49   25   29 ar
    50   25   48 1
    51   26   27 ar
    52   26   49 1
    53   27   50 1
    54   28   30 ar
    55   28   51 1
    56   29   30 ar
    57   29   52 1
    58   30   53 1
