@<TRIPOS>MOLECULE
25174101
   55    58     0     0     0
SMALL
NO_CHARGES

@<TRIPOS>ATOM
      1 O1          1.9970   -5.6910    1.0580 O.2       1 UNK         0.0000
      2 N1          4.2340   -4.4200   -1.0190 N.pl3     1 UNK         0.0000
      3 N2          5.4830   -4.9990   -1.2760 N.2       1 UNK         0.0000
      4 N3          3.0240   -3.7220    1.0040 N.am      1 UNK         0.0000
      5 N4          0.9280   -3.9850    1.9960 N.am      1 UNK         0.0000
      6 N5          2.3740   -1.1840   -4.0820 N.pl3     1 UNK         0.0000
      7 C1          7.4670   -5.7830    0.0420 C.3       1 UNK         0.0000
      8 C2          6.0950   -5.1850   -0.1340 C.2       1 UNK         0.0000
      9 C3          8.0210   -5.3910    1.4130 C.3       1 UNK         0.0000
     10 C4          7.3760   -7.3070   -0.0560 C.3       1 UNK         0.0000
     11 C5          8.3970   -5.2570   -1.0540 C.3       1 UNK         0.0000
     12 C6          5.2650   -4.7270    0.8930 C.2       1 UNK         0.0000
     13 C7          4.1170   -4.2640    0.3270 C.2       1 UNK         0.0000
     14 C8          3.2760   -4.0650   -1.9790 C.ar      1 UNK         0.0000
     15 C9          3.2990   -2.8010   -2.5490 C.ar      1 UNK         0.0000
     16 C10         2.2970   -4.9770   -2.3540 C.ar      1 UNK         0.0000
     17 C11         1.9830   -4.5090    1.3420 C.2       1 UNK         0.0000
     18 C12        -0.0960   -4.8190    2.4500 C.ar      1 UNK         0.0000
     19 C13        -1.3180   -4.8960    1.7470 C.ar      1 UNK         0.0000
     20 C14         2.3510   -2.4550   -3.5010 C.ar      1 UNK         0.0000
     21 C15        -2.3420   -5.7480    2.2280 C.ar      1 UNK         0.0000
     22 C16         1.3520   -4.6290   -3.3000 C.ar      1 UNK         0.0000
     23 C17         1.3750   -3.3730   -3.8740 C.ar      1 UNK         0.0000
     24 C18         0.0770   -5.5740    3.5900 C.ar      1 UNK         0.0000
     25 C19        -1.5360   -4.1440    0.5830 C.ar      1 UNK         0.0000
     26 C20        -2.1250   -6.5010    3.3940 C.ar      1 UNK         0.0000
     27 C21        -0.9380   -6.4080    4.0520 C.ar      1 UNK         0.0000
     28 C22        -3.5580   -5.8240    1.5270 C.ar      1 UNK         0.0000
     29 C23        -2.7260   -4.2420   -0.0710 C.ar      1 UNK         0.0000
     30 C24        -3.7350   -5.0800    0.4010 C.ar      1 UNK         0.0000
     31 H1          9.0220   -4.9750    1.2940 H         1 UNK         0.0000
     32 H2          7.3690   -4.6460    1.8700 H         1 UNK         0.0000
     33 H3          8.0680   -6.2720    2.0520 H         1 UNK         0.0000
     34 H4          6.3300   -7.6040   -0.1400 H         1 UNK         0.0000
     35 H5          7.9230   -7.6490   -0.9340 H         1 UNK         0.0000
     36 H6          7.8090   -7.7540    0.8390 H         1 UNK         0.0000
     37 H7          9.4300   -5.3080   -0.7090 H         1 UNK         0.0000
     38 H8          8.2840   -5.8670   -1.9500 H         1 UNK         0.0000
     39 H9          8.1410   -4.2240   -1.2830 H         1 UNK         0.0000
     40 H10         5.4930   -4.7410    1.9490 H         1 UNK         0.0000
     41 H11         3.0130   -2.7790    1.2310 H         1 UNK         0.0000
     42 H12         4.0560   -2.0890   -2.2550 H         1 UNK         0.0000
     43 H13         2.2760   -5.9600   -1.9070 H         1 UNK         0.0000
     44 H14         0.8790   -3.0290    2.1510 H         1 UNK         0.0000
     45 H15         0.5920   -5.3390   -3.5910 H         1 UNK         0.0000
     46 H16         0.6350   -3.1030   -4.6120 H         1 UNK         0.0000
     47 H17         1.0110   -5.5180    4.1300 H         1 UNK         0.0000
     48 H18        -0.7620   -3.4900    0.2060 H         1 UNK         0.0000
     49 H19        -2.9030   -7.1510    3.7700 H         1 UNK         0.0000
     50 H20        -0.7790   -6.9900    4.9480 H         1 UNK         0.0000
     51 H21        -4.3490   -6.4690    1.8810 H         1 UNK         0.0000
     52 H22        -2.8910   -3.6630   -0.9670 H         1 UNK         0.0000
     53 H23        -4.6710   -5.1400   -0.1350 H         1 UNK         0.0000
     54 H24         3.2110   -0.6990   -4.1520 H         1 UNK         0.0000
     55 H25         1.5540   -0.7890   -4.4150 H         1 UNK         0.0000
@<TRIPOS>BOND
     1    1   17 2
     2    2    3 1
     3    2   13 1
     4    2   14 1
     5    3    8 2
     6    4   13 1
     7    4   17 am
     8    4   41 1
     9    5   17 am
    10    5   18 1
    11    5   44 1
    12    6   20 1
    13    6   54 1
    14    6   55 1
    15    7    8 1
    16    7    9 1
    17    7   10 1
    18    7   11 1
    19    8   12 1
    20    9   31 1
    21    9   32 1
    22    9   33 1
    23   10   34 1
    24   10   35 1
    25   10   36 1
    26   11   37 1
    27   11   38 1
    28   11   39 1
    29   12   13 2
    30   12   40 1
    31   14   15 ar
    32   14   16 ar
    33   15   20 ar
    34   15   42 1
    35   16   22 ar
    36   16   43 1
    37   18   19 ar
    38   18   24 ar
    39   19   21 ar
    40   19   25 ar
    41   20   23 ar
    42   21   26 ar
    43   21   28 ar
    44   22   23 ar
    45   22   45 1
    46   23   46 1
    47   24   27 ar
    48   24   47 1
    49   25   29 ar
    50   25   48 1
    51   26   27 ar
    52   26   49 1
    53   27   50 1
    54   28   30 ar
    55   28   51 1
    56   29   30 ar
    57   29   52 1
    58   30   53 1
