@<TRIPOS>MOLECULE
5328940
   65    68     0     0     0
SMALL
NO_CHARGES

@<TRIPOS>ATOM
      1 Cl1        -5.8700   -4.2520   -4.4960 Cl        1 UNK         0.0000
      2 Cl2        -9.0960   -0.0720   -3.3570 Cl        1 UNK         0.0000
      3 O1         -1.6320   -4.0380    1.1180 O.3       1 UNK         0.0000
      4 O2         -2.4060   -3.4490   -1.4510 O.3       1 UNK         0.0000
      5 O3         -9.8590   -1.7110   -1.0220 O.3       1 UNK         0.0000
      6 N1          2.0860   -5.4670   -0.2720 N.3       1 UNK         0.0000
      7 N2          4.9220   -5.3130   -0.4760 N.3       1 UNK         0.0000
      8 N3         -7.0120   -5.4350   -2.0180 N.pl3     1 UNK         0.0000
      9 N4         -5.7560   -6.2720    1.8570 N.ar      1 UNK         0.0000
     10 N5         -9.7160   -7.2590   -0.5750 N.1       1 UNK         0.0000
     11 C1          2.8400   -4.4590    0.4880 C.3       1 UNK         0.0000
     12 C2          2.7650   -5.7850   -1.5350 C.3       1 UNK         0.0000
     13 C3          4.2420   -4.9940    0.7880 C.3       1 UNK         0.0000
     14 C4          4.1670   -6.3190   -1.2360 C.3       1 UNK         0.0000
     15 C5          0.7070   -5.0200   -0.5120 C.3       1 UNK         0.0000
     16 C6         -0.2560   -5.8610    0.3280 C.3       1 UNK         0.0000
     17 C7          6.3000   -5.7580   -0.2350 C.3       1 UNK         0.0000
     18 C8         -0.7170   -5.0510    1.5400 C.3       1 UNK         0.0000
     19 C9         -2.8470   -4.4510    0.6710 C.ar      1 UNK         0.0000
     20 C10        -3.2420   -4.1500   -0.6400 C.ar      1 UNK         0.0000
     21 C11        -5.3230   -5.2790   -0.2740 C.ar      1 UNK         0.0000
     22 C12        -3.6760   -5.1590    1.5110 C.ar      1 UNK         0.0000
     23 C13        -4.9320   -5.5860    1.0510 C.ar      1 UNK         0.0000
     24 C14        -4.4580   -4.5550   -1.1100 C.ar      1 UNK         0.0000
     25 C15        -6.5880   -5.7110   -0.7330 C.ar      1 UNK         0.0000
     26 C16        -7.3990   -6.4280    0.1580 C.ar      1 UNK         0.0000
     27 C17        -6.9300   -6.6890    1.4570 C.ar      1 UNK         0.0000
     28 C18        -7.5070   -4.1650   -2.3330 C.ar      1 UNK         0.0000
     29 C19        -8.4470   -3.5620   -1.5100 C.ar      1 UNK         0.0000
     30 C20        -2.0950   -4.0310   -2.7200 C.3       1 UNK         0.0000
     31 C21        -7.0530   -3.5030   -3.4680 C.ar      1 UNK         0.0000
     32 C22        -8.9360   -2.3040   -1.8250 C.ar      1 UNK         0.0000
     33 C23        -8.6910   -6.8920   -0.2500 C.1       1 UNK         0.0000
     34 C24        -7.5460   -2.2500   -3.7820 C.ar      1 UNK         0.0000
     35 C25        -8.4840   -1.6490   -2.9630 C.ar      1 UNK         0.0000
     36 C26       -10.8540   -2.5580   -0.4420 C.3       1 UNK         0.0000
     37 H1          2.9160   -3.5430   -0.0980 H         1 UNK         0.0000
     38 H2          2.3230   -4.2490    1.4250 H         1 UNK         0.0000
     39 H3          2.1940   -6.5420   -2.0730 H         1 UNK         0.0000
     40 H4          2.8410   -4.8850   -2.1440 H         1 UNK         0.0000
     41 H5          4.1660   -5.8940    1.3970 H         1 UNK         0.0000
     42 H6          4.8130   -4.2370    1.3260 H         1 UNK         0.0000
     43 H7          4.0910   -7.2350   -0.6500 H         1 UNK         0.0000
     44 H8          4.6830   -6.5300   -2.1730 H         1 UNK         0.0000
     45 H9          0.4670   -5.1390   -1.5690 H         1 UNK         0.0000
     46 H10         0.6100   -3.9710   -0.2340 H         1 UNK         0.0000
     47 H11         0.2510   -6.7650    0.6660 H         1 UNK         0.0000
     48 H12        -1.1220   -6.1350   -0.2760 H         1 UNK         0.0000
     49 H13         6.4600   -6.7230   -0.7150 H         1 UNK         0.0000
     50 H14         6.9950   -5.0280   -0.6490 H         1 UNK         0.0000
     51 H15         6.4680   -5.8530    0.8380 H         1 UNK         0.0000
     52 H16         0.1460   -4.5850    2.0150 H         1 UNK         0.0000
     53 H17        -1.2110   -5.7120    2.2530 H         1 UNK         0.0000
     54 H18        -3.3620   -5.3850    2.5180 H         1 UNK         0.0000
     55 H19        -4.7550   -4.3190   -2.1210 H         1 UNK         0.0000
     56 H20        -6.9670   -6.1210   -2.7020 H         1 UNK         0.0000
     57 H21        -7.5540   -7.2410    2.1410 H         1 UNK         0.0000
     58 H22        -8.7990   -4.0720   -0.6260 H         1 UNK         0.0000
     59 H23        -1.6300   -3.2820   -3.3600 H         1 UNK         0.0000
     60 H24        -1.4070   -4.8650   -2.5780 H         1 UNK         0.0000
     61 H25        -3.0120   -4.3910   -3.1880 H         1 UNK         0.0000
     62 H26        -7.1940   -1.7390   -4.6670 H         1 UNK         0.0000
     63 H27       -11.8410   -2.1350   -0.6250 H         1 UNK         0.0000
     64 H28       -10.7930   -3.5490   -0.8890 H         1 UNK         0.0000
     65 H29       -10.6840   -2.6330    0.6330 H         1 UNK         0.0000
@<TRIPOS>BOND
     1    1   31 1
     2    2   35 1
     3    3   18 1
     4    3   19 1
     5    4   20 1
     6    4   30 1
     7    5   32 1
     8    5   36 1
     9    6   11 1
    10    6   12 1
    11    6   15 1
    12    7   13 1
    13    7   14 1
    14    7   17 1
    15    8   25 1
    16    8   28 1
    17    8   56 1
    18    9   23 ar
    19    9   27 ar
    20   10   33 3
    21   11   13 1
    22   11   37 1
    23   11   38 1
    24   12   14 1
    25   12   39 1
    26   12   40 1
    27   13   41 1
    28   13   42 1
    29   14   43 1
    30   14   44 1
    31   15   16 1
    32   15   45 1
    33   15   46 1
    34   16   18 1
    35   16   47 1
    36   16   48 1
    37   17   49 1
    38   17   50 1
    39   17   51 1
    40   18   52 1
    41   18   53 1
    42   19   20 ar
    43   19   22 ar
    44   20   24 ar
    45   21   23 ar
    46   21   24 ar
    47   21   25 ar
    48   22   23 ar
    49   22   54 1
    50   24   55 1
    51   25   26 ar
    52   26   27 ar
    53   26   33 1
    54   27   57 1
    55   28   29 ar
    56   28   31 ar
    57   29   32 ar
    58   29   58 1
    59   30   59 1
    60   30   60 1
    61   30   61 1
    62   31   34 ar
    63   32   35 ar
    64   34   35 ar
    65   34   62 1
    66   36   63 1
    67   36   64 1
    68   36   65 1
