@<TRIPOS>MOLECULE
5328940
   65    68     0     0     0
SMALL
NO_CHARGES

@<TRIPOS>ATOM
      1 Cl1       -11.5500   -9.6230   16.5450 Cl        1 UNK         0.0000
      2 Cl2        -7.2370  -12.2950   14.6940 Cl        1 UNK         0.0000
      3 O1         -7.8330   -1.7880   13.1910 O.3       1 UNK         0.0000
      4 O2         -7.4100   -3.2900   15.4530 O.3       1 UNK         0.0000
      5 O3         -6.5870   -9.7140   13.4150 O.3       1 UNK         0.0000
      6 N1         -8.5680    1.1400   15.9690 N.3       1 UNK         0.0000
      7 N2         -9.6940    3.5360   17.0190 N.3       1 UNK         0.0000
      8 N3        -10.4120   -7.3260   15.0380 N.pl3     1 UNK         0.0000
      9 N4        -10.9800   -4.9890   11.6440 N.ar      1 UNK         0.0000
     10 N5        -12.8370   -9.1050   13.1200 N.1       1 UNK         0.0000
     11 C1         -9.9920    1.4480   15.7750 C.3       1 UNK         0.0000
     12 C2         -7.7720    2.3730   16.0450 C.3       1 UNK         0.0000
     13 C3        -10.4910    2.3030   16.9420 C.3       1 UNK         0.0000
     14 C4         -8.2700    3.2280   17.2120 C.3       1 UNK         0.0000
     15 C5         -8.0710    0.2570   14.9060 C.3       1 UNK         0.0000
     16 C6         -9.1040    0.1810   13.7800 C.3       1 UNK         0.0000
     17 C7        -10.1910    4.4190   18.0800 C.3       1 UNK         0.0000
     18 C8         -8.5590   -0.6860   12.6440 C.3       1 UNK         0.0000
     19 C9         -8.5130   -2.9520   13.3620 C.ar      1 UNK         0.0000
     20 C10        -8.2970   -3.7180   14.5160 C.ar      1 UNK         0.0000
     21 C11        -9.8860   -5.3350   13.7420 C.ar      1 UNK         0.0000
     22 C12        -9.4060   -3.3650   12.4000 C.ar      1 UNK         0.0000
     23 C13       -10.1100   -4.5670   12.5740 C.ar      1 UNK         0.0000
     24 C14        -8.9700   -4.8900   14.7080 C.ar      1 UNK         0.0000
     25 C15       -10.5970   -6.5450   13.9140 C.ar      1 UNK         0.0000
     26 C16       -11.4960   -6.9260   12.9070 C.ar      1 UNK         0.0000
     27 C17       -11.6550   -6.1020   11.7810 C.ar      1 UNK         0.0000
     28 C18        -9.6580   -8.5020   14.9550 C.ar      1 UNK         0.0000
     29 C19        -8.4830   -8.5230   14.2180 C.ar      1 UNK         0.0000
     30 C20        -7.8490   -3.2970   16.8130 C.3       1 UNK         0.0000
     31 C21       -10.0830   -9.6490   15.6160 C.ar      1 UNK         0.0000
     32 C22        -7.7380   -9.6890   14.1370 C.ar      1 UNK         0.0000
     33 C23       -12.2440   -8.1410   13.0260 C.1       1 UNK         0.0000
     34 C24        -9.3410  -10.8120   15.5300 C.ar      1 UNK         0.0000
     35 C25        -8.1700  -10.8340   14.7940 C.ar      1 UNK         0.0000
     36 C26        -6.7140   -9.8230   11.9950 C.3       1 UNK         0.0000
     37 H1        -10.1220    1.9950   14.8410 H         1 UNK         0.0000
     38 H2        -10.5620    0.5200   15.7340 H         1 UNK         0.0000
     39 H3         -6.7230    2.1190   16.2020 H         1 UNK         0.0000
     40 H4         -7.8760    2.9310   15.1150 H         1 UNK         0.0000
     41 H5        -10.3860    1.7450   17.8720 H         1 UNK         0.0000
     42 H6        -11.5390    2.5570   16.7850 H         1 UNK         0.0000
     43 H7         -8.1410    2.6810   18.1460 H         1 UNK         0.0000
     44 H8         -7.7000    4.1550   17.2530 H         1 UNK         0.0000
     45 H9         -7.9030   -0.7410   15.3130 H         1 UNK         0.0000
     46 H10        -7.1340    0.6510   14.5140 H         1 UNK         0.0000
     47 H11        -9.3070    1.1840   13.4060 H         1 UNK         0.0000
     48 H12       -10.0260   -0.2580   14.1610 H         1 UNK         0.0000
     49 H13        -9.5310    4.3570   18.9450 H         1 UNK         0.0000
     50 H14       -10.2170    5.4460   17.7160 H         1 UNK         0.0000
     51 H15       -11.1970    4.1100   18.3680 H         1 UNK         0.0000
     52 H16        -7.8960   -0.0890   12.0180 H         1 UNK         0.0000
     53 H17        -9.3880   -1.0600   12.0430 H         1 UNK         0.0000
     54 H18        -9.5640   -2.7680   11.5150 H         1 UNK         0.0000
     55 H19        -8.7980   -5.4750   15.6000 H         1 UNK         0.0000
     56 H20       -10.8040   -7.0600   15.8840 H         1 UNK         0.0000
     57 H21       -12.3470   -6.3960   11.0060 H         1 UNK         0.0000
     58 H22        -8.1480   -7.6320   13.7070 H         1 UNK         0.0000
     59 H23        -7.4150   -2.4490   17.3410 H         1 UNK         0.0000
     60 H24        -8.9370   -3.2260   16.8430 H         1 UNK         0.0000
     61 H25        -7.5320   -4.2240   17.2920 H         1 UNK         0.0000
     62 H26        -9.6750  -11.7030   16.0410 H         1 UNK         0.0000
     63 H27        -6.0630  -10.6180   11.6330 H         1 UNK         0.0000
     64 H28        -7.7480  -10.0520   11.7400 H         1 UNK         0.0000
     65 H29        -6.4250   -8.8780   11.5320 H         1 UNK         0.0000
@<TRIPOS>BOND
     1    1   31 1
     2    2   35 1
     3    3   18 1
     4    3   19 1
     5    4   20 1
     6    4   30 1
     7    5   32 1
     8    5   36 1
     9    6   11 1
    10    6   12 1
    11    6   15 1
    12    7   13 1
    13    7   14 1
    14    7   17 1
    15    8   25 1
    16    8   28 1
    17    8   56 1
    18    9   23 ar
    19    9   27 ar
    20   10   33 3
    21   11   13 1
    22   11   37 1
    23   11   38 1
    24   12   14 1
    25   12   39 1
    26   12   40 1
    27   13   41 1
    28   13   42 1
    29   14   43 1
    30   14   44 1
    31   15   16 1
    32   15   45 1
    33   15   46 1
    34   16   18 1
    35   16   47 1
    36   16   48 1
    37   17   49 1
    38   17   50 1
    39   17   51 1
    40   18   52 1
    41   18   53 1
    42   19   20 ar
    43   19   22 ar
    44   20   24 ar
    45   21   23 ar
    46   21   24 ar
    47   21   25 ar
    48   22   23 ar
    49   22   54 1
    50   24   55 1
    51   25   26 ar
    52   26   27 ar
    53   26   33 1
    54   27   57 1
    55   28   29 ar
    56   28   31 ar
    57   29   32 ar
    58   29   58 1
    59   30   59 1
    60   30   60 1
    61   30   61 1
    62   31   34 ar
    63   32   35 ar
    64   34   35 ar
    65   34   62 1
    66   36   63 1
    67   36   64 1
    68   36   65 1
