@<TRIPOS>MOLECULE
5328940
   65    68     0     0     0
SMALL
NO_CHARGES

@<TRIPOS>ATOM
      1 Cl1         2.4290   -2.4480   -6.1360 Cl        1 UNK         0.0000
      2 Cl2         4.1130    2.6840   -6.0920 Cl        1 UNK         0.0000
      3 O1          2.1050   -3.9250    0.6900 O.3       1 UNK         0.0000
      4 O2          1.1120   -3.1740   -1.7580 O.3       1 UNK         0.0000
      5 O3          6.5450    1.5380   -4.8710 O.3       1 UNK         0.0000
      6 N1         -1.8060   -4.2060    1.1010 N.3       1 UNK         0.0000
      7 N2         -4.1690   -5.5550    0.2610 N.3       1 UNK         0.0000
      8 N3          5.0680   -3.0200   -4.8900 N.pl3     1 UNK         0.0000
      9 N4          6.4770   -4.1590   -1.1460 N.ar      1 UNK         0.0000
     10 N5          8.5780   -3.4530   -5.3480 N.1       1 UNK         0.0000
     11 C1         -2.2450   -5.4400    1.7710 C.3       1 UNK         0.0000
     12 C2         -2.2060   -4.2080   -0.3130 C.3       1 UNK         0.0000
     13 C3         -3.7680   -5.5540    1.6750 C.3       1 UNK         0.0000
     14 C4         -3.7290   -4.3230   -0.4080 C.3       1 UNK         0.0000
     15 C5         -0.3550   -4.0220    1.2380 C.3       1 UNK         0.0000
     16 C6          0.3190   -5.3840    1.4120 C.3       1 UNK         0.0000
     17 C7         -5.6190   -5.7400    0.1240 C.3       1 UNK         0.0000
     18 C8          1.8170   -5.2520    1.1350 C.3       1 UNK         0.0000
     19 C9          2.9490   -3.7970   -0.3670 C.ar      1 UNK         0.0000
     20 C10         2.4430   -3.4140   -1.6170 C.ar      1 UNK         0.0000
     21 C11         4.6460   -3.5270   -2.5480 C.ar      1 UNK         0.0000
     22 C12         4.2920   -4.0460   -0.1990 C.ar      1 UNK         0.0000
     23 C13         5.1660   -3.9150   -1.2900 C.ar      1 UNK         0.0000
     24 C14         3.2720   -3.2800   -2.6920 C.ar      1 UNK         0.0000
     25 C15         5.5290   -3.3960   -3.6440 C.ar      1 UNK         0.0000
     26 C16         6.8890   -3.6600   -3.4250 C.ar      1 UNK         0.0000
     27 C17         7.3180   -4.0400   -2.1420 C.ar      1 UNK         0.0000
     28 C18         4.8440   -1.6690   -5.1730 C.ar      1 UNK         0.0000
     29 C19         5.8180   -0.7260   -4.8780 C.ar      1 UNK         0.0000
     30 C20         0.7060   -1.8050   -1.8470 C.3       1 UNK         0.0000
     31 C21         3.6470   -1.2690   -5.7580 C.ar      1 UNK         0.0000
     32 C22         5.5930    0.6120   -5.1600 C.ar      1 UNK         0.0000
     33 C23         7.8310   -3.5440   -4.4970 C.1       1 UNK         0.0000
     34 C24         3.4240    0.0670   -6.0330 C.ar      1 UNK         0.0000
     35 C25         4.3950    1.0070   -5.7380 C.ar      1 UNK         0.0000
     36 C26         7.9000    1.1930   -5.1730 C.3       1 UNK         0.0000
     37 H1         -1.7830   -6.3000    1.2860 H         1 UNK         0.0000
     38 H2         -1.9480   -5.4090    2.8190 H         1 UNK         0.0000
     39 H3         -1.8810   -3.2790   -0.7820 H         1 UNK         0.0000
     40 H4         -1.7450   -5.0540   -0.8200 H         1 UNK         0.0000
     41 H5         -4.2290   -4.7080    2.1830 H         1 UNK         0.0000
     42 H6         -4.0930   -6.4820    2.1450 H         1 UNK         0.0000
     43 H7         -4.1910   -3.4620    0.0760 H         1 UNK         0.0000
     44 H8         -4.0260   -4.3520   -1.4560 H         1 UNK         0.0000
     45 H9         -0.1490   -3.4010    2.1100 H         1 UNK         0.0000
     46 H10         0.0360   -3.5350    0.3450 H         1 UNK         0.0000
     47 H11        -0.1180   -6.0970    0.7130 H         1 UNK         0.0000
     48 H12         0.1680   -5.7370    2.4330 H         1 UNK         0.0000
     49 H13        -5.9900   -6.3340    0.9590 H         1 UNK         0.0000
     50 H14        -6.1110   -4.7680    0.1240 H         1 UNK         0.0000
     51 H15        -5.8320   -6.2560   -0.8120 H         1 UNK         0.0000
     52 H16         2.1080   -5.9650    0.3640 H         1 UNK         0.0000
     53 H17         2.3750   -5.4570    2.0500 H         1 UNK         0.0000
     54 H18         4.6720   -4.3410    0.7680 H         1 UNK         0.0000
     55 H19         2.8740   -2.9840   -3.6510 H         1 UNK         0.0000
     56 H20         4.8990   -3.6920   -5.5680 H         1 UNK         0.0000
     57 H21         8.3640   -4.2430   -1.9750 H         1 UNK         0.0000
     58 H22         6.7500   -1.0340   -4.4280 H         1 UNK         0.0000
     59 H23         0.0860   -1.5530   -0.9880 H         1 UNK         0.0000
     60 H24         1.5890   -1.1660   -1.8590 H         1 UNK         0.0000
     61 H25         0.1360   -1.6550   -2.7640 H         1 UNK         0.0000
     62 H26         2.4920    0.3760   -6.4840 H         1 UNK         0.0000
     63 H27         8.3530    1.9880   -5.7640 H         1 UNK         0.0000
     64 H28         8.4570    1.0640   -4.2460 H         1 UNK         0.0000
     65 H29         7.9180    0.2620   -5.7410 H         1 UNK         0.0000
@<TRIPOS>BOND
     1    1   31 1
     2    2   35 1
     3    3   18 1
     4    3   19 1
     5    4   20 1
     6    4   30 1
     7    5   32 1
     8    5   36 1
     9    6   11 1
    10    6   12 1
    11    6   15 1
    12    7   13 1
    13    7   14 1
    14    7   17 1
    15    8   25 1
    16    8   28 1
    17    8   56 1
    18    9   23 ar
    19    9   27 ar
    20   10   33 3
    21   11   13 1
    22   11   37 1
    23   11   38 1
    24   12   14 1
    25   12   39 1
    26   12   40 1
    27   13   41 1
    28   13   42 1
    29   14   43 1
    30   14   44 1
    31   15   16 1
    32   15   45 1
    33   15   46 1
    34   16   18 1
    35   16   47 1
    36   16   48 1
    37   17   49 1
    38   17   50 1
    39   17   51 1
    40   18   52 1
    41   18   53 1
    42   19   20 ar
    43   19   22 ar
    44   20   24 ar
    45   21   23 ar
    46   21   24 ar
    47   21   25 ar
    48   22   23 ar
    49   22   54 1
    50   24   55 1
    51   25   26 ar
    52   26   27 ar
    53   26   33 1
    54   27   57 1
    55   28   29 ar
    56   28   31 ar
    57   29   32 ar
    58   29   58 1
    59   30   59 1
    60   30   60 1
    61   30   61 1
    62   31   34 ar
    63   32   35 ar
    64   34   35 ar
    65   34   62 1
    66   36   63 1
    67   36   64 1
    68   36   65 1
