@<TRIPOS>MOLECULE
5328940
   65    68     0     0     0
SMALL
NO_CHARGES

@<TRIPOS>ATOM
      1 Cl1         7.6790   -3.6000   -4.3410 Cl        1 UNK         0.0000
      2 Cl2         5.0130    0.9440   -5.5270 Cl        1 UNK         0.0000
      3 O1         -0.8020   -5.2400   -0.8350 O.3       1 UNK         0.0000
      4 O2          0.0760   -4.8530   -3.4090 O.3       1 UNK         0.0000
      5 O3          2.7570   -0.4090   -4.1860 O.3       1 UNK         0.0000
      6 N1         -1.7800   -6.1220    2.3670 N.3       1 UNK         0.0000
      7 N2         -0.5470   -6.3950    4.9190 N.3       1 UNK         0.0000
      8 N3          5.1000   -4.4540   -3.1330 N.pl3     1 UNK         0.0000
      9 N4          3.6770   -5.0510    0.7290 N.ar      1 UNK         0.0000
     10 N5          8.0240   -4.4520   -1.0910 N.1       1 UNK         0.0000
     11 C1         -2.5910   -6.3440    3.5720 C.3       1 UNK         0.0000
     12 C2         -0.5530   -5.3800    2.6920 C.3       1 UNK         0.0000
     13 C3         -1.7750   -7.1370    4.5950 C.3       1 UNK         0.0000
     14 C4          0.2630   -6.1720    3.7150 C.3       1 UNK         0.0000
     15 C5         -2.5560   -5.4290    1.3310 C.3       1 UNK         0.0000
     16 C6         -1.8860   -4.0950    0.9960 C.3       1 UNK         0.0000
     17 C7          0.2280   -7.0880    5.9560 C.3       1 UNK         0.0000
     18 C8         -1.5310   -4.0610   -0.4910 C.3       1 UNK         0.0000
     19 C9          0.5270   -5.0960   -1.0780 C.ar      1 UNK         0.0000
     20 C10         0.9760   -4.8990   -2.3910 C.ar      1 UNK         0.0000
     21 C11         3.2370   -4.8000   -1.6070 C.ar      1 UNK         0.0000
     22 C12         1.4190   -5.1470   -0.0300 C.ar      1 UNK         0.0000
     23 C13         2.7930   -4.9990   -0.2780 C.ar      1 UNK         0.0000
     24 C14         2.3060   -4.7530   -2.6570 C.ar      1 UNK         0.0000
     25 C15         4.6210   -4.6510   -1.8530 C.ar      1 UNK         0.0000
     26 C16         5.4910   -4.7100   -0.7550 C.ar      1 UNK         0.0000
     27 C17         4.9630   -4.9110    0.5310 C.ar      1 UNK         0.0000
     28 C18         5.0770   -3.1760   -3.6990 C.ar      1 UNK         0.0000
     29 C19         3.9150   -2.4190   -3.6600 C.ar      1 UNK         0.0000
     30 C20         0.5900   -4.5850   -4.7170 C.3       1 UNK         0.0000
     31 C21         6.2210   -2.6590   -4.2970 C.ar      1 UNK         0.0000
     32 C22         3.8950   -1.1520   -4.2220 C.ar      1 UNK         0.0000
     33 C23         6.9040   -4.5660   -0.9410 C.1       1 UNK         0.0000
     34 C24         6.1970   -1.3970   -4.8610 C.ar      1 UNK         0.0000
     35 C25         5.0380   -0.6430   -4.8230 C.ar      1 UNK         0.0000
     36 C26         1.5660   -1.0680   -3.7490 C.3       1 UNK         0.0000
     37 H1         -2.8780   -5.3830    4.0010 H         1 UNK         0.0000
     38 H2         -3.4870   -6.9060    3.3080 H         1 UNK         0.0000
     39 H3          0.0360   -5.2390    1.7850 H         1 UNK         0.0000
     40 H4         -0.8160   -4.4090    3.1100 H         1 UNK         0.0000
     41 H5         -1.5120   -8.1090    4.1760 H         1 UNK         0.0000
     42 H6         -2.3640   -7.2780    5.5010 H         1 UNK         0.0000
     43 H7          0.5490   -7.1330    3.2860 H         1 UNK         0.0000
     44 H8          1.1590   -5.6110    3.9770 H         1 UNK         0.0000
     45 H9         -3.5670   -5.2460    1.6960 H         1 UNK         0.0000
     46 H10        -2.6010   -6.0470    0.4350 H         1 UNK         0.0000
     47 H11        -0.9780   -3.9860    1.5890 H         1 UNK         0.0000
     48 H12        -2.5690   -3.2770    1.2250 H         1 UNK         0.0000
     49 H13         1.2900   -6.9030    5.8000 H         1 UNK         0.0000
     50 H14        -0.0640   -6.7160    6.9380 H         1 UNK         0.0000
     51 H15         0.0330   -8.1590    5.9000 H         1 UNK         0.0000
     52 H16        -0.9190   -3.1820   -0.6980 H         1 UNK         0.0000
     53 H17        -2.4460   -4.0140   -1.0820 H         1 UNK         0.0000
     54 H18         1.0630   -5.2990    0.9780 H         1 UNK         0.0000
     55 H19         2.6430   -4.6010   -3.6720 H         1 UNK         0.0000
     56 H20         5.4530   -5.2020   -3.6390 H         1 UNK         0.0000
     57 H21         5.6340   -4.9560    1.3750 H         1 UNK         0.0000
     58 H22         3.0260   -2.8170   -3.1920 H         1 UNK         0.0000
     59 H23         0.9360   -5.5140   -5.1690 H         1 UNK         0.0000
     60 H24        -0.1980   -4.1520   -5.3330 H         1 UNK         0.0000
     61 H25         1.4210   -3.8840   -4.6420 H         1 UNK         0.0000
     62 H26         7.0850   -0.9980   -5.3290 H         1 UNK         0.0000
     63 H27         1.6620   -2.1410   -3.9160 H         1 UNK         0.0000
     64 H28         1.4130   -0.8760   -2.6880 H         1 UNK         0.0000
     65 H29         0.7140   -0.6880   -4.3140 H         1 UNK         0.0000
@<TRIPOS>BOND
     1    1   31 1
     2    2   35 1
     3    3   18 1
     4    3   19 1
     5    4   20 1
     6    4   30 1
     7    5   32 1
     8    5   36 1
     9    6   11 1
    10    6   12 1
    11    6   15 1
    12    7   13 1
    13    7   14 1
    14    7   17 1
    15    8   25 1
    16    8   28 1
    17    8   56 1
    18    9   23 ar
    19    9   27 ar
    20   10   33 3
    21   11   13 1
    22   11   37 1
    23   11   38 1
    24   12   14 1
    25   12   39 1
    26   12   40 1
    27   13   41 1
    28   13   42 1
    29   14   43 1
    30   14   44 1
    31   15   16 1
    32   15   45 1
    33   15   46 1
    34   16   18 1
    35   16   47 1
    36   16   48 1
    37   17   49 1
    38   17   50 1
    39   17   51 1
    40   18   52 1
    41   18   53 1
    42   19   20 ar
    43   19   22 ar
    44   20   24 ar
    45   21   23 ar
    46   21   24 ar
    47   21   25 ar
    48   22   23 ar
    49   22   54 1
    50   24   55 1
    51   25   26 ar
    52   26   27 ar
    53   26   33 1
    54   27   57 1
    55   28   29 ar
    56   28   31 ar
    57   29   32 ar
    58   29   58 1
    59   30   59 1
    60   30   60 1
    61   30   61 1
    62   31   34 ar
    63   32   35 ar
    64   34   35 ar
    65   34   62 1
    66   36   63 1
    67   36   64 1
    68   36   65 1
