@<TRIPOS>MOLECULE
5328940
   65    68     0     0     0
SMALL
NO_CHARGES

@<TRIPOS>ATOM
      1 Cl1        -8.1810  -10.7080   16.8860 Cl        1 UNK         0.0000
      2 Cl2       -13.1290  -12.2980   15.4140 Cl        1 UNK         0.0000
      3 O1        -10.1450   -2.2090   13.5900 O.3       1 UNK         0.0000
      4 O2        -10.8370   -3.5090   15.9100 O.3       1 UNK         0.0000
      5 O3        -13.2960   -9.5960   14.2330 O.3       1 UNK         0.0000
      6 N1         -8.7330    0.6640   15.5920 N.3       1 UNK         0.0000
      7 N2         -9.6380    3.1820   16.5650 N.3       1 UNK         0.0000
      8 N3         -8.9150   -8.1610   15.5380 N.pl3     1 UNK         0.0000
      9 N4         -7.9090   -6.1090   12.0630 N.ar      1 UNK         0.0000
     10 N5         -7.0560  -10.5190   13.6120 N.1       1 UNK         0.0000
     11 C1        -10.0840    1.1490   15.2760 C.3       1 UNK         0.0000
     12 C2         -7.7980    1.7870   15.7510 C.3       1 UNK         0.0000
     13 C3        -10.5730    2.0590   16.4040 C.3       1 UNK         0.0000
     14 C4         -8.2870    2.6970   16.8790 C.3       1 UNK         0.0000
     15 C5         -8.2590   -0.2750   14.5680 C.3       1 UNK         0.0000
     16 C6         -9.0580   -0.0730   13.2790 C.3       1 UNK         0.0000
     17 C7        -10.1130    4.1220   17.5880 C.3       1 UNK         0.0000
     18 C8         -9.3850   -1.4340   12.6620 C.3       1 UNK         0.0000
     19 C9         -9.7600   -3.4990   13.7790 C.ar      1 UNK         0.0000
     20 C10       -10.1130   -4.1620   14.9620 C.ar      1 UNK         0.0000
     21 C11        -8.9890   -6.1330   14.1960 C.ar      1 UNK         0.0000
     22 C12        -9.0270   -4.1390   12.8050 C.ar      1 UNK         0.0000
     23 C13        -8.6280   -5.4710   12.9980 C.ar      1 UNK         0.0000
     24 C14        -9.7370   -5.4570   15.1720 C.ar      1 UNK         0.0000
     25 C15        -8.5860   -7.4750   14.3860 C.ar      1 UNK         0.0000
     26 C16        -7.8400   -8.0850   13.3670 C.ar      1 UNK         0.0000
     27 C17        -7.5270   -7.3520   12.2110 C.ar      1 UNK         0.0000
     28 C18        -9.9140   -9.1390   15.5070 C.ar      1 UNK         0.0000
     29 C19       -11.1220   -8.8780   14.8770 C.ar      1 UNK         0.0000
     30 C20       -10.1040   -2.7950   16.9090 C.3       1 UNK         0.0000
     31 C21        -9.6960  -10.3760   16.1030 C.ar      1 UNK         0.0000
     32 C22       -12.1110   -9.8490   14.8490 C.ar      1 UNK         0.0000
     33 C23        -7.4030   -9.4420   13.5030 C.1       1 UNK         0.0000
     34 C24       -10.6850  -11.3410   16.0770 C.ar      1 UNK         0.0000
     35 C25       -11.8910  -11.0810   15.4500 C.ar      1 UNK         0.0000
     36 C26       -14.0460   -8.4730   14.7050 C.3       1 UNK         0.0000
     37 H1        -10.0610    1.7080   14.3410 H         1 UNK         0.0000
     38 H2        -10.7600    0.2990   15.1760 H         1 UNK         0.0000
     39 H3         -6.8080    1.4020   15.9970 H         1 UNK         0.0000
     40 H4         -7.7490    2.3530   14.8220 H         1 UNK         0.0000
     41 H5        -10.6230    1.4920   17.3340 H         1 UNK         0.0000
     42 H6        -11.5630    2.4430   16.1590 H         1 UNK         0.0000
     43 H7         -8.3110    2.1380   17.8150 H         1 UNK         0.0000
     44 H8         -7.6110    3.5460   16.9810 H         1 UNK         0.0000
     45 H9         -8.3930   -1.2970   14.9220 H         1 UNK         0.0000
     46 H10        -7.2020   -0.0960   14.3700 H         1 UNK         0.0000
     47 H11        -8.4700    0.5140   12.5750 H         1 UNK         0.0000
     48 H12        -9.9850    0.4550   13.5060 H         1 UNK         0.0000
     49 H13       -11.1280    4.4380   17.3490 H         1 UNK         0.0000
     50 H14       -10.1060    3.6320   18.5620 H         1 UNK         0.0000
     51 H15        -9.4570    4.9920   17.6130 H         1 UNK         0.0000
     52 H16        -8.4590   -1.9560   12.4240 H         1 UNK         0.0000
     53 H17        -9.9660   -1.2890   11.7500 H         1 UNK         0.0000
     54 H18        -8.7610   -3.6190   11.8980 H         1 UNK         0.0000
     55 H19       -10.0130   -5.9610   16.0870 H         1 UNK         0.0000
     56 H20        -8.4530   -7.9660   16.3680 H         1 UNK         0.0000
     57 H21        -6.9530   -7.8230   11.4270 H         1 UNK         0.0000
     58 H22       -11.2930   -7.9190   14.4100 H         1 UNK         0.0000
     59 H23       -10.3890   -1.7440   16.8880 H         1 UNK         0.0000
     60 H24       -10.3280   -3.2130   17.8900 H         1 UNK         0.0000
     61 H25        -9.0360   -2.8870   16.7100 H         1 UNK         0.0000
     62 H26       -10.5160  -12.3000   16.5440 H         1 UNK         0.0000
     63 H27       -14.7920   -8.1970   13.9610 H         1 UNK         0.0000
     64 H28       -14.5410   -8.7340   15.6390 H         1 UNK         0.0000
     65 H29       -13.3720   -7.6330   14.8720 H         1 UNK         0.0000
@<TRIPOS>BOND
     1    1   31 1
     2    2   35 1
     3    3   18 1
     4    3   19 1
     5    4   20 1
     6    4   30 1
     7    5   32 1
     8    5   36 1
     9    6   11 1
    10    6   12 1
    11    6   15 1
    12    7   13 1
    13    7   14 1
    14    7   17 1
    15    8   25 1
    16    8   28 1
    17    8   56 1
    18    9   23 ar
    19    9   27 ar
    20   10   33 3
    21   11   13 1
    22   11   37 1
    23   11   38 1
    24   12   14 1
    25   12   39 1
    26   12   40 1
    27   13   41 1
    28   13   42 1
    29   14   43 1
    30   14   44 1
    31   15   16 1
    32   15   45 1
    33   15   46 1
    34   16   18 1
    35   16   47 1
    36   16   48 1
    37   17   49 1
    38   17   50 1
    39   17   51 1
    40   18   52 1
    41   18   53 1
    42   19   20 ar
    43   19   22 ar
    44   20   24 ar
    45   21   23 ar
    46   21   24 ar
    47   21   25 ar
    48   22   23 ar
    49   22   54 1
    50   24   55 1
    51   25   26 ar
    52   26   27 ar
    53   26   33 1
    54   27   57 1
    55   28   29 ar
    56   28   31 ar
    57   29   32 ar
    58   29   58 1
    59   30   59 1
    60   30   60 1
    61   30   61 1
    62   31   34 ar
    63   32   35 ar
    64   34   35 ar
    65   34   62 1
    66   36   63 1
    67   36   64 1
    68   36   65 1
