@<TRIPOS>MOLECULE
25174101
   55    58     0     0     0
SMALL
NO_CHARGES

@<TRIPOS>ATOM
      1 O1          7.1390   -5.6220   -8.2370 O.2       1 UNK         0.0000
      2 N1          7.9810   -5.5500  -11.3950 N.pl3     1 UNK         0.0000
      3 N2          9.2940   -5.5280  -11.8810 N.2       1 UNK         0.0000
      4 N3          6.6780   -4.1590   -9.8420 N.am      1 UNK         0.0000
      5 N4          5.2720   -4.4440   -8.0010 N.am      1 UNK         0.0000
      6 N5          4.0480   -6.7760  -13.9130 N.pl3     1 UNK         0.0000
      7 C1         11.3480   -4.1170  -11.6010 C.3       1 UNK         0.0000
      8 C2          9.9150   -4.5070  -11.3460 C.2       1 UNK         0.0000
      9 C3         11.5040   -2.6060  -11.4220 C.3       1 UNK         0.0000
     10 C4         12.2590   -4.8450  -10.6130 C.3       1 UNK         0.0000
     11 C5         11.7340   -4.5030  -13.0310 C.3       1 UNK         0.0000
     12 C6          9.0220   -3.8370  -10.5050 C.2       1 UNK         0.0000
     13 C7          7.8340   -4.4990  -10.5430 C.2       1 UNK         0.0000
     14 C8          6.9930   -6.4880  -11.7260 C.ar      1 UNK         0.0000
     15 C9          6.0100   -6.1640  -12.6500 C.ar      1 UNK         0.0000
     16 C10         6.9940   -7.7410  -11.1260 C.ar      1 UNK         0.0000
     17 C11         6.3890   -4.7720   -8.6770 C.2       1 UNK         0.0000
     18 C12         5.0320   -4.9920   -6.7390 C.ar      1 UNK         0.0000
     19 C13         4.3460   -6.2180   -6.6130 C.ar      1 UNK         0.0000
     20 C14         5.0370   -7.0970  -12.9790 C.ar      1 UNK         0.0000
     21 C15         4.1130   -6.7550   -5.3230 C.ar      1 UNK         0.0000
     22 C16         6.0210   -8.6660  -11.4520 C.ar      1 UNK         0.0000
     23 C17         5.0440   -8.3490  -12.3750 C.ar      1 UNK         0.0000
     24 C18         5.4640   -4.3380   -5.6050 C.ar      1 UNK         0.0000
     25 C19         3.8890   -6.9160   -7.7420 C.ar      1 UNK         0.0000
     26 C20         4.5690   -6.0570   -4.1910 C.ar      1 UNK         0.0000
     27 C21         5.2280   -4.8750   -4.3420 C.ar      1 UNK         0.0000
     28 C22         3.4300   -7.9760   -5.1990 C.ar      1 UNK         0.0000
     29 C23         3.2310   -8.0970   -7.5850 C.ar      1 UNK         0.0000
     30 C24         3.0010   -8.6250   -6.3160 C.ar      1 UNK         0.0000
     31 H1         11.3020   -2.3410  -10.3840 H         1 UNK         0.0000
     32 H2         12.5220   -2.3120  -11.6800 H         1 UNK         0.0000
     33 H3         10.8010   -2.0870  -12.0720 H         1 UNK         0.0000
     34 H4         11.9990   -4.5540   -9.5950 H         1 UNK         0.0000
     35 H5         12.1330   -5.9220  -10.7270 H         1 UNK         0.0000
     36 H6         13.2980   -4.5790  -10.8130 H         1 UNK         0.0000
     37 H7         12.8180   -4.5870  -13.1050 H         1 UNK         0.0000
     38 H8         11.2790   -5.4610  -13.2850 H         1 UNK         0.0000
     39 H9         11.3810   -3.7390  -13.7220 H         1 UNK         0.0000
     40 H10         9.2390   -2.9510   -9.9250 H         1 UNK         0.0000
     41 H11         6.0790   -3.4800  -10.1940 H         1 UNK         0.0000
     42 H12         6.0050   -5.1890  -13.1150 H         1 UNK         0.0000
     43 H13         7.7570   -7.9910  -10.4030 H         1 UNK         0.0000
     44 H14         4.6330   -3.8260   -8.3900 H         1 UNK         0.0000
     45 H15         6.0240   -9.6390  -10.9840 H         1 UNK         0.0000
     46 H16         4.2850   -9.0740  -12.6280 H         1 UNK         0.0000
     47 H17         5.9890   -3.3990   -5.6960 H         1 UNK         0.0000
     48 H18         4.0610   -6.5180   -8.7320 H         1 UNK         0.0000
     49 H19         4.3930   -6.4560   -3.2030 H         1 UNK         0.0000
     50 H20         5.5750   -4.3450   -3.4670 H         1 UNK         0.0000
     51 H21         3.2450   -8.3980   -4.2220 H         1 UNK         0.0000
     52 H22         2.8820   -8.6320   -8.4550 H         1 UNK         0.0000
     53 H23         2.4760   -9.5640   -6.2180 H         1 UNK         0.0000
     54 H24         3.4170   -6.0640  -13.7250 H         1 UNK         0.0000
     55 H25         3.9950   -7.2650  -14.7490 H         1 UNK         0.0000
@<TRIPOS>BOND
     1    1   17 2
     2    2    3 1
     3    2   13 1
     4    2   14 1
     5    3    8 2
     6    4   13 1
     7    4   17 am
     8    4   41 1
     9    5   17 am
    10    5   18 1
    11    5   44 1
    12    6   20 1
    13    6   54 1
    14    6   55 1
    15    7    8 1
    16    7    9 1
    17    7   10 1
    18    7   11 1
    19    8   12 1
    20    9   31 1
    21    9   32 1
    22    9   33 1
    23   10   34 1
    24   10   35 1
    25   10   36 1
    26   11   37 1
    27   11   38 1
    28   11   39 1
    29   12   13 2
    30   12   40 1
    31   14   15 ar
    32   14   16 ar
    33   15   20 ar
    34   15   42 1
    35   16   22 ar
    36   16   43 1
    37   18   19 ar
    38   18   24 ar
    39   19   21 ar
    40   19   25 ar
    41   20   23 ar
    42   21   26 ar
    43   21   28 ar
    44   22   23 ar
    45   22   45 1
    46   23   46 1
    47   24   27 ar
    48   24   47 1
    49   25   29 ar
    50   25   48 1
    51   26   27 ar
    52   26   49 1
    53   27   50 1
    54   28   30 ar
    55   28   51 1
    56   29   30 ar
    57   29   52 1
    58   30   53 1
