@<TRIPOS>MOLECULE
25174101
   55    58     0     0     0
SMALL
NO_CHARGES

@<TRIPOS>ATOM
      1 O1          4.5890   -9.4410   -9.5330 O.2       1 UNK         0.0000
      2 N1          6.4010   -8.8940  -12.1680 N.pl3     1 UNK         0.0000
      3 N2          7.0290   -9.8690  -12.9530 N.2       1 UNK         0.0000
      4 N3          4.0880   -8.4580  -11.4610 N.am      1 UNK         0.0000
      5 N4          2.9490   -7.9440   -9.4880 N.am      1 UNK         0.0000
      6 N5          6.8250   -4.1440  -11.4220 N.pl3     1 UNK         0.0000
      7 C1          6.3680  -11.9120  -14.2490 C.3       1 UNK         0.0000
      8 C2          6.1190  -10.7100  -13.3750 C.2       1 UNK         0.0000
      9 C3          7.8510  -12.2840  -14.1900 C.3       1 UNK         0.0000
     10 C4          5.5270  -13.0880  -13.7530 C.3       1 UNK         0.0000
     11 C5          5.9820  -11.5810  -15.6920 C.3       1 UNK         0.0000
     12 C6          4.8780  -10.3080  -12.8720 C.2       1 UNK         0.0000
     13 C7          5.0710   -9.1810  -12.1340 C.2       1 UNK         0.0000
     14 C8          7.0300   -7.8150  -11.5320 C.ar      1 UNK         0.0000
     15 C9          6.6180   -6.5170  -11.7960 C.ar      1 UNK         0.0000
     16 C10         8.0700   -8.0450  -10.6390 C.ar      1 UNK         0.0000
     17 C11         3.8990   -8.6430  -10.1390 C.2       1 UNK         0.0000
     18 C12         2.8320   -8.0480   -8.1010 C.ar      1 UNK         0.0000
     19 C13         3.6470   -7.2660   -7.2560 C.ar      1 UNK         0.0000
     20 C14         7.2400   -5.4520  -11.1610 C.ar      1 UNK         0.0000
     21 C15         3.5100   -7.3880   -5.8510 C.ar      1 UNK         0.0000
     22 C16         8.6900   -6.9820  -10.0110 C.ar      1 UNK         0.0000
     23 C17         8.2800   -5.6880  -10.2680 C.ar      1 UNK         0.0000
     24 C18         1.9170   -8.9160   -7.5450 C.ar      1 UNK         0.0000
     25 C19         4.5900   -6.3690   -7.7800 C.ar      1 UNK         0.0000
     26 C20         2.5660   -8.2860   -5.3240 C.ar      1 UNK         0.0000
     27 C21         1.7930   -9.0280   -6.1630 C.ar      1 UNK         0.0000
     28 C22         4.3230   -6.6090   -5.0100 C.ar      1 UNK         0.0000
     29 C23         5.3610   -5.6290   -6.9360 C.ar      1 UNK         0.0000
     30 C24         5.2280   -5.7500   -5.5540 C.ar      1 UNK         0.0000
     31 H1          8.4440  -11.4820  -14.6300 H         1 UNK         0.0000
     32 H2          8.1500  -12.4280  -13.1510 H         1 UNK         0.0000
     33 H3          8.0170  -13.2060  -14.7460 H         1 UNK         0.0000
     34 H4          6.1830  -13.8660  -13.3610 H         1 UNK         0.0000
     35 H5          4.8550  -12.7480  -12.9640 H         1 UNK         0.0000
     36 H6          4.9410  -13.4900  -14.5790 H         1 UNK         0.0000
     37 H7          6.7160  -12.0140  -16.3730 H         1 UNK         0.0000
     38 H8          4.9980  -11.9970  -15.9090 H         1 UNK         0.0000
     39 H9          5.9570  -10.5000  -15.8240 H         1 UNK         0.0000
     40 H10         3.9330  -10.8030  -13.0410 H         1 UNK         0.0000
     41 H11         3.5380   -7.8200  -11.9440 H         1 UNK         0.0000
     42 H12         5.8130   -6.3370  -12.4930 H         1 UNK         0.0000
     43 H13         8.3930   -9.0550  -10.4370 H         1 UNK         0.0000
     44 H14         2.3460   -7.3680   -9.9840 H         1 UNK         0.0000
     45 H15         9.4980   -7.1620   -9.3180 H         1 UNK         0.0000
     46 H16         8.7670   -4.8590   -9.7770 H         1 UNK         0.0000
     47 H17         1.2910   -9.5170   -8.1880 H         1 UNK         0.0000
     48 H18         4.7040   -6.2660   -8.8500 H         1 UNK         0.0000
     49 H19         2.4580   -8.3900   -4.2540 H         1 UNK         0.0000
     50 H20         1.0700   -9.7160   -5.7490 H         1 UNK         0.0000
     51 H21         4.2300   -6.6910   -3.9370 H         1 UNK         0.0000
     52 H22         6.0850   -4.9400   -7.3430 H         1 UNK         0.0000
     53 H23         5.8510   -5.1520   -4.9060 H         1 UNK         0.0000
     54 H24         5.8860   -3.9120  -11.3590 H         1 UNK         0.0000
     55 H25         7.4780   -3.4680  -11.6640 H         1 UNK         0.0000
@<TRIPOS>BOND
     1    1   17 2
     2    2    3 1
     3    2   13 1
     4    2   14 1
     5    3    8 2
     6    4   13 1
     7    4   17 am
     8    4   41 1
     9    5   17 am
    10    5   18 1
    11    5   44 1
    12    6   20 1
    13    6   54 1
    14    6   55 1
    15    7    8 1
    16    7    9 1
    17    7   10 1
    18    7   11 1
    19    8   12 1
    20    9   31 1
    21    9   32 1
    22    9   33 1
    23   10   34 1
    24   10   35 1
    25   10   36 1
    26   11   37 1
    27   11   38 1
    28   11   39 1
    29   12   13 2
    30   12   40 1
    31   14   15 ar
    32   14   16 ar
    33   15   20 ar
    34   15   42 1
    35   16   22 ar
    36   16   43 1
    37   18   19 ar
    38   18   24 ar
    39   19   21 ar
    40   19   25 ar
    41   20   23 ar
    42   21   26 ar
    43   21   28 ar
    44   22   23 ar
    45   22   45 1
    46   23   46 1
    47   24   27 ar
    48   24   47 1
    49   25   29 ar
    50   25   48 1
    51   26   27 ar
    52   26   49 1
    53   27   50 1
    54   28   30 ar
    55   28   51 1
    56   29   30 ar
    57   29   52 1
    58   30   53 1
