@<TRIPOS>MOLECULE
25174101
   55    58     0     0     0
SMALL
NO_CHARGES

@<TRIPOS>ATOM
      1 O1          5.9880   -6.5680  -10.2680 O.2       1 UNK         0.0000
      2 N1          8.4450   -4.9360  -12.2650 N.pl3     1 UNK         0.0000
      3 N2          8.7300   -5.5160  -13.5070 N.2       1 UNK         0.0000
      4 N3          6.3960   -4.5040  -10.9770 N.am      1 UNK         0.0000
      5 N4          5.1830   -4.9130   -9.0250 N.am      1 UNK         0.0000
      6 N5         10.8530   -1.1540  -10.4730 N.pl3     1 UNK         0.0000
      7 C1          7.4580   -6.5640  -15.3970 C.3       1 UNK         0.0000
      8 C2          7.6020   -5.8930  -14.0560 C.2       1 UNK         0.0000
      9 C3          7.2350   -8.0640  -15.1940 C.3       1 UNK         0.0000
     10 C4          6.2640   -5.9660  -16.1420 C.3       1 UNK         0.0000
     11 C5          8.7320   -6.3440  -16.2170 C.3       1 UNK         0.0000
     12 C6          6.5580   -5.5740  -13.1840 C.2       1 UNK         0.0000
     13 C7          7.0970   -4.9780  -12.0860 C.2       1 UNK         0.0000
     14 C8          9.3810   -4.4060  -11.3670 C.ar      1 UNK         0.0000
     15 C9          9.6550   -3.0450  -11.3700 C.ar      1 UNK         0.0000
     16 C10        10.0420   -5.2430  -10.4770 C.ar      1 UNK         0.0000
     17 C11         5.8600   -5.3720  -10.0960 C.2       1 UNK         0.0000
     18 C12         4.7290   -5.8050   -8.0510 C.ar      1 UNK         0.0000
     19 C13         4.8750   -5.5000   -6.6820 C.ar      1 UNK         0.0000
     20 C14        10.5780   -2.5250  -10.4760 C.ar      1 UNK         0.0000
     21 C15         4.4080   -6.4200   -5.7110 C.ar      1 UNK         0.0000
     22 C16        10.9650   -4.7220   -9.5910 C.ar      1 UNK         0.0000
     23 C17        11.2360   -3.3680   -9.5870 C.ar      1 UNK         0.0000
     24 C18         4.1350   -6.9920   -8.4200 C.ar      1 UNK         0.0000
     25 C19         5.4740   -4.3020   -6.2630 C.ar      1 UNK         0.0000
     26 C20         3.8070   -7.6200   -6.1290 C.ar      1 UNK         0.0000
     27 C21         3.6800   -7.8890   -7.4580 C.ar      1 UNK         0.0000
     28 C22         4.5530   -6.1150   -4.3480 C.ar      1 UNK         0.0000
     29 C23         5.5990   -4.0380   -4.9320 C.ar      1 UNK         0.0000
     30 C24         5.1400   -4.9440   -3.9780 C.ar      1 UNK         0.0000
     31 H1          6.3590   -8.2190  -14.5640 H         1 UNK         0.0000
     32 H2          7.0750   -8.5420  -16.1620 H         1 UNK         0.0000
     33 H3          8.1100   -8.5010  -14.7150 H         1 UNK         0.0000
     34 H4          5.5860   -5.4990  -15.4270 H         1 UNK         0.0000
     35 H5          6.6150   -5.2170  -16.8520 H         1 UNK         0.0000
     36 H6          5.7380   -6.7560  -16.6780 H         1 UNK         0.0000
     37 H7          8.4900   -6.3730  -17.2790 H         1 UNK         0.0000
     38 H8          9.1600   -5.3730  -15.9690 H         1 UNK         0.0000
     39 H9          9.4520   -7.1290  -15.9870 H         1 UNK         0.0000
     40 H10         5.5080   -5.7650  -13.3530 H         1 UNK         0.0000
     41 H11         6.2940   -3.5480  -10.8400 H         1 UNK         0.0000
     42 H12         9.1450   -2.3940  -12.0640 H         1 UNK         0.0000
     43 H13         9.8330   -6.3030  -10.4780 H         1 UNK         0.0000
     44 H14         5.0110   -3.9640   -8.9300 H         1 UNK         0.0000
     45 H15        11.4770   -5.3750   -8.8990 H         1 UNK         0.0000
     46 H16        11.9580   -2.9630   -8.8940 H         1 UNK         0.0000
     47 H17         4.0210   -7.2300   -9.4680 H         1 UNK         0.0000
     48 H18         5.8350   -3.5910   -6.9930 H         1 UNK         0.0000
     49 H19         3.4510   -8.3300   -5.3970 H         1 UNK         0.0000
     50 H20         3.2180   -8.8140   -7.7700 H         1 UNK         0.0000
     51 H21         4.2010   -6.8060   -3.5960 H         1 UNK         0.0000
     52 H22         6.0600   -3.1160   -4.6130 H         1 UNK         0.0000
     53 H23         5.2510   -4.7120   -2.9280 H         1 UNK         0.0000
     54 H24        10.5670   -0.6010  -11.2170 H         1 UNK         0.0000
     55 H25        11.3280   -0.7570   -9.7260 H         1 UNK         0.0000
@<TRIPOS>BOND
     1    1   17 2
     2    2    3 1
     3    2   13 1
     4    2   14 1
     5    3    8 2
     6    4   13 1
     7    4   17 am
     8    4   41 1
     9    5   17 am
    10    5   18 1
    11    5   44 1
    12    6   20 1
    13    6   54 1
    14    6   55 1
    15    7    8 1
    16    7    9 1
    17    7   10 1
    18    7   11 1
    19    8   12 1
    20    9   31 1
    21    9   32 1
    22    9   33 1
    23   10   34 1
    24   10   35 1
    25   10   36 1
    26   11   37 1
    27   11   38 1
    28   11   39 1
    29   12   13 2
    30   12   40 1
    31   14   15 ar
    32   14   16 ar
    33   15   20 ar
    34   15   42 1
    35   16   22 ar
    36   16   43 1
    37   18   19 ar
    38   18   24 ar
    39   19   21 ar
    40   19   25 ar
    41   20   23 ar
    42   21   26 ar
    43   21   28 ar
    44   22   23 ar
    45   22   45 1
    46   23   46 1
    47   24   27 ar
    48   24   47 1
    49   25   29 ar
    50   25   48 1
    51   26   27 ar
    52   26   49 1
    53   27   50 1
    54   28   30 ar
    55   28   51 1
    56   29   30 ar
    57   29   52 1
    58   30   53 1
