@<TRIPOS>MOLECULE
25174101
   55    58     0     0     0
SMALL
NO_CHARGES

@<TRIPOS>ATOM
      1 O1          6.7440   -5.2750   -5.3850 O.2       1 UNK         0.0000
      2 N1          5.0990   -6.4470   -8.2170 N.pl3     1 UNK         0.0000
      3 N2          5.8560   -6.8270   -9.3320 N.2       1 UNK         0.0000
      4 N3          5.1060   -4.5260   -6.6840 N.am      1 UNK         0.0000
      5 N4          5.2910   -3.8820   -4.4480 N.am      1 UNK         0.0000
      6 N5          2.5920   -7.8850   -4.3500 N.pl3     1 UNK         0.0000
      7 C1          7.7790   -5.9200  -10.6600 C.3       1 UNK         0.0000
      8 C2          6.7580   -5.9040   -9.5540 C.2       1 UNK         0.0000
      9 C3          8.0680   -7.3670  -11.0660 C.3       1 UNK         0.0000
     10 C4          7.2400   -5.1490  -11.8660 C.3       1 UNK         0.0000
     11 C5          9.0710   -5.2610  -10.1710 C.3       1 UNK         0.0000
     12 C6          6.6050   -4.8980   -8.5950 C.2       1 UNK         0.0000
     13 C7          5.5800   -5.2540   -7.7740 C.2       1 UNK         0.0000
     14 C8          4.0340   -7.1670   -7.6580 C.ar      1 UNK         0.0000
     15 C9          3.8450   -7.1720   -6.2830 C.ar      1 UNK         0.0000
     16 C10         3.1710   -7.8820   -8.4780 C.ar      1 UNK         0.0000
     17 C11         5.7490   -4.5860   -5.5010 C.2       1 UNK         0.0000
     18 C12         6.0210   -3.8510   -3.2570 C.ar      1 UNK         0.0000
     19 C13         5.9930   -2.7050   -2.4340 C.ar      1 UNK         0.0000
     20 C14         2.7880   -7.8820   -5.7340 C.ar      1 UNK         0.0000
     21 C15         6.7420   -2.6960   -1.2320 C.ar      1 UNK         0.0000
     22 C16         2.1210   -8.5920   -7.9280 C.ar      1 UNK         0.0000
     23 C17         1.9270   -8.5950   -6.5600 C.ar      1 UNK         0.0000
     24 C18         6.7760   -4.9390   -2.8770 C.ar      1 UNK         0.0000
     25 C19         5.2370   -1.5760   -2.7840 C.ar      1 UNK         0.0000
     26 C20         7.4990   -3.8260   -0.8800 C.ar      1 UNK         0.0000
     27 C21         7.5080   -4.9180   -1.6930 C.ar      1 UNK         0.0000
     28 C22         6.7130   -1.5550   -0.4120 C.ar      1 UNK         0.0000
     29 C23         5.2320   -0.4870   -1.9660 C.ar      1 UNK         0.0000
     30 C24         5.9690   -0.4770   -0.7830 C.ar      1 UNK         0.0000
     31 H1          8.7800   -7.8050  -10.3670 H         1 UNK         0.0000
     32 H2          7.1410   -7.9410  -11.0480 H         1 UNK         0.0000
     33 H3          8.4860   -7.3860  -12.0720 H         1 UNK         0.0000
     34 H4          6.5380   -4.3860  -11.5260 H         1 UNK         0.0000
     35 H5          8.0660   -4.6740  -12.3940 H         1 UNK         0.0000
     36 H6          6.7280   -5.8380  -12.5380 H         1 UNK         0.0000
     37 H7          9.4420   -5.7940   -9.2950 H         1 UNK         0.0000
     38 H8          9.8210   -5.2980  -10.9620 H         1 UNK         0.0000
     39 H9          8.8730   -4.2230   -9.9070 H         1 UNK         0.0000
     40 H10         7.1990   -3.9990   -8.5180 H         1 UNK         0.0000
     41 H11         4.3120   -3.9750   -6.7760 H         1 UNK         0.0000
     42 H12         4.5180   -6.6210   -5.6430 H         1 UNK         0.0000
     43 H13         3.3200   -7.8820   -9.5480 H         1 UNK         0.0000
     44 H14         4.4540   -3.3970   -4.5150 H         1 UNK         0.0000
     45 H15         1.4510   -9.1460   -8.5680 H         1 UNK         0.0000
     46 H16         1.1060   -9.1510   -6.1330 H         1 UNK         0.0000
     47 H17         6.8010   -5.8180   -3.5040 H         1 UNK         0.0000
     48 H18         4.6610   -1.5700   -3.6980 H         1 UNK         0.0000
     49 H19         8.0760   -3.8270    0.0330 H         1 UNK         0.0000
     50 H20         8.0940   -5.7820   -1.4160 H         1 UNK         0.0000
     51 H21         7.2780   -1.5330    0.5080 H         1 UNK         0.0000
     52 H22         4.6490    0.3800   -2.2380 H         1 UNK         0.0000
     53 H23         5.9480    0.3990   -0.1520 H         1 UNK         0.0000
     54 H24         1.7950   -7.4800   -3.9730 H         1 UNK         0.0000
     55 H25         3.2520   -8.2930   -3.7680 H         1 UNK         0.0000
@<TRIPOS>BOND
     1    1   17 2
     2    2    3 1
     3    2   13 1
     4    2   14 1
     5    3    8 2
     6    4   13 1
     7    4   17 am
     8    4   41 1
     9    5   17 am
    10    5   18 1
    11    5   44 1
    12    6   20 1
    13    6   54 1
    14    6   55 1
    15    7    8 1
    16    7    9 1
    17    7   10 1
    18    7   11 1
    19    8   12 1
    20    9   31 1
    21    9   32 1
    22    9   33 1
    23   10   34 1
    24   10   35 1
    25   10   36 1
    26   11   37 1
    27   11   38 1
    28   11   39 1
    29   12   13 2
    30   12   40 1
    31   14   15 ar
    32   14   16 ar
    33   15   20 ar
    34   15   42 1
    35   16   22 ar
    36   16   43 1
    37   18   19 ar
    38   18   24 ar
    39   19   21 ar
    40   19   25 ar
    41   20   23 ar
    42   21   26 ar
    43   21   28 ar
    44   22   23 ar
    45   22   45 1
    46   23   46 1
    47   24   27 ar
    48   24   47 1
    49   25   29 ar
    50   25   48 1
    51   26   27 ar
    52   26   49 1
    53   27   50 1
    54   28   30 ar
    55   28   51 1
    56   29   30 ar
    57   29   52 1
    58   30   53 1
