@<TRIPOS>MOLECULE
25174101
   55    58     0     0     0
SMALL
NO_CHARGES

@<TRIPOS>ATOM
      1 O1          7.7690   -4.8890  -10.2380 O.2       1 UNK         0.0000
      2 N1         10.9710   -3.0860  -11.1400 N.pl3     1 UNK         0.0000
      3 N2         11.1810   -3.0930  -12.5240 N.2       1 UNK         0.0000
      4 N3          9.8570   -4.5850   -9.5420 N.am      1 UNK         0.0000
      5 N4          8.1680   -5.2820   -8.0890 N.am      1 UNK         0.0000
      6 N5         10.3230    1.1820   -8.9780 N.pl3     1 UNK         0.0000
      7 C1         10.6270   -4.5710  -14.4730 C.3       1 UNK         0.0000
      8 C2         10.6310   -4.1730  -13.0200 C.2       1 UNK         0.0000
      9 C3         11.2500   -3.4510  -15.3090 C.3       1 UNK         0.0000
     10 C4         11.4380   -5.8540  -14.6540 C.3       1 UNK         0.0000
     11 C5          9.1870   -4.8090  -14.9320 C.3       1 UNK         0.0000
     12 C6         10.0570   -4.8980  -11.9720 C.2       1 UNK         0.0000
     13 C7         10.2720   -4.2080  -10.8190 C.2       1 UNK         0.0000
     14 C8         11.4050   -2.0980  -10.2440 C.ar      1 UNK         0.0000
     15 C9         10.6510   -0.9480  -10.0600 C.ar      1 UNK         0.0000
     16 C10        12.5930   -2.2680   -9.5440 C.ar      1 UNK         0.0000
     17 C11         8.5690   -4.9180   -9.3220 C.2       1 UNK         0.0000
     18 C12         6.8640   -5.7390   -7.8840 C.ar      1 UNK         0.0000
     19 C13         6.2930   -5.7090   -6.5950 C.ar      1 UNK         0.0000
     20 C14        11.0820    0.0240   -9.1700 C.ar      1 UNK         0.0000
     21 C15         4.9690   -6.1780   -6.4110 C.ar      1 UNK         0.0000
     22 C16        13.0210   -1.2950   -8.6610 C.ar      1 UNK         0.0000
     23 C17        12.2710   -0.1510   -8.4720 C.ar      1 UNK         0.0000
     24 C18         6.1240   -6.2230   -8.9420 C.ar      1 UNK         0.0000
     25 C19         7.0110   -5.2240   -5.4910 C.ar      1 UNK         0.0000
     26 C20         4.2480   -6.6650   -7.5150 C.ar      1 UNK         0.0000
     27 C21         4.8240   -6.6820   -8.7480 C.ar      1 UNK         0.0000
     28 C22         4.4000   -6.1480   -5.1270 C.ar      1 UNK         0.0000
     29 C23         6.4290   -5.2090   -4.2600 C.ar      1 UNK         0.0000
     30 C24         5.1270   -5.6710   -4.0790 C.ar      1 UNK         0.0000
     31 H1         12.3290   -3.4400  -15.1550 H         1 UNK         0.0000
     32 H2         11.0360   -3.6230  -16.3650 H         1 UNK         0.0000
     33 H3         10.8290   -2.4930  -15.0060 H         1 UNK         0.0000
     34 H4         12.4300   -5.6080  -15.0340 H         1 UNK         0.0000
     35 H5         11.5320   -6.3640  -13.6950 H         1 UNK         0.0000
     36 H6         10.9300   -6.5080  -15.3630 H         1 UNK         0.0000
     37 H7          8.5440   -4.0220  -14.5360 H         1 UNK         0.0000
     38 H8          9.1450   -4.7960  -16.0220 H         1 UNK         0.0000
     39 H9          8.8440   -5.7760  -14.5670 H         1 UNK         0.0000
     40 H10         9.5340   -5.8390  -12.0620 H         1 UNK         0.0000
     41 H11        10.4950   -4.6080   -8.8110 H         1 UNK         0.0000
     42 H12         9.7300   -0.8130  -10.6070 H         1 UNK         0.0000
     43 H13        13.1820   -3.1610   -9.6910 H         1 UNK         0.0000
     44 H14         8.7850   -5.2270   -7.3430 H         1 UNK         0.0000
     45 H15        13.9450   -1.4290   -8.1180 H         1 UNK         0.0000
     46 H16        12.6080    0.6070   -7.7810 H         1 UNK         0.0000
     47 H17         6.5580   -6.2480   -9.9300 H         1 UNK         0.0000
     48 H18         8.0220   -4.8630   -5.6180 H         1 UNK         0.0000
     49 H19         3.2390   -7.0280   -7.3840 H         1 UNK         0.0000
     50 H20         4.2640   -7.0580   -9.5920 H         1 UNK         0.0000
     51 H21         3.3920   -6.5020   -4.9710 H         1 UNK         0.0000
     52 H22         6.9840   -4.8350   -3.4140 H         1 UNK         0.0000
     53 H23         4.6880   -5.6490   -3.0920 H         1 UNK         0.0000
     54 H24        10.2580    1.5780   -8.0950 H         1 UNK         0.0000
     55 H25         9.8620    1.5890   -9.7280 H         1 UNK         0.0000
@<TRIPOS>BOND
     1    1   17 2
     2    2    3 1
     3    2   13 1
     4    2   14 1
     5    3    8 2
     6    4   13 1
     7    4   17 am
     8    4   41 1
     9    5   17 am
    10    5   18 1
    11    5   44 1
    12    6   20 1
    13    6   54 1
    14    6   55 1
    15    7    8 1
    16    7    9 1
    17    7   10 1
    18    7   11 1
    19    8   12 1
    20    9   31 1
    21    9   32 1
    22    9   33 1
    23   10   34 1
    24   10   35 1
    25   10   36 1
    26   11   37 1
    27   11   38 1
    28   11   39 1
    29   12   13 2
    30   12   40 1
    31   14   15 ar
    32   14   16 ar
    33   15   20 ar
    34   15   42 1
    35   16   22 ar
    36   16   43 1
    37   18   19 ar
    38   18   24 ar
    39   19   21 ar
    40   19   25 ar
    41   20   23 ar
    42   21   26 ar
    43   21   28 ar
    44   22   23 ar
    45   22   45 1
    46   23   46 1
    47   24   27 ar
    48   24   47 1
    49   25   29 ar
    50   25   48 1
    51   26   27 ar
    52   26   49 1
    53   27   50 1
    54   28   30 ar
    55   28   51 1
    56   29   30 ar
    57   29   52 1
    58   30   53 1
