@<TRIPOS>MOLECULE
25174101
   55    58     0     0     0
SMALL
NO_CHARGES

@<TRIPOS>ATOM
      1 O1          8.2900   -5.1920   -9.4860 O.2       1 UNK         0.0000
      2 N1          5.4130   -6.3570   -8.3190 N.pl3     1 UNK         0.0000
      3 N2          5.1790   -6.6360   -6.9670 N.2       1 UNK         0.0000
      4 N3          6.2160   -4.4040   -9.5780 N.am      1 UNK         0.0000
      5 N4          7.8080   -3.8610  -11.1960 N.am      1 UNK         0.0000
      6 N5          2.4600   -8.6040  -11.4080 N.pl3     1 UNK         0.0000
      7 C1          5.3670   -5.4410   -4.7700 C.3       1 UNK         0.0000
      8 C2          5.4750   -5.5690   -6.2680 C.2       1 UNK         0.0000
      9 C3          4.3430   -6.4480   -4.2450 C.3       1 UNK         0.0000
     10 C4          6.7300   -5.7190   -4.1340 C.3       1 UNK         0.0000
     11 C5          4.9180   -4.0220   -4.4110 C.3       1 UNK         0.0000
     12 C6          5.9150   -4.5740   -7.1440 C.2       1 UNK         0.0000
     13 C7          5.8640   -5.0760   -8.4080 C.2       1 UNK         0.0000
     14 C8          5.2180   -7.2400   -9.3900 C.ar      1 UNK         0.0000
     15 C9          3.9370   -7.4860   -9.8630 C.ar      1 UNK         0.0000
     16 C10         6.3070   -7.8750   -9.9750 C.ar      1 UNK         0.0000
     17 C11         7.4680   -4.5100  -10.0660 C.2       1 UNK         0.0000
     18 C12         9.0670   -4.0620  -11.7670 C.ar      1 UNK         0.0000
     19 C13        10.1500   -3.2300  -11.4140 C.ar      1 UNK         0.0000
     20 C14         3.7490   -8.3570  -10.9260 C.ar      1 UNK         0.0000
     21 C15        11.4180   -3.4530  -12.0050 C.ar      1 UNK         0.0000
     22 C16         6.1150   -8.7460  -11.0300 C.ar      1 UNK         0.0000
     23 C17         4.8420   -8.9890  -11.5070 C.ar      1 UNK         0.0000
     24 C18         9.2610   -5.0750  -12.6800 C.ar      1 UNK         0.0000
     25 C19         9.9960   -2.1870  -10.4880 C.ar      1 UNK         0.0000
     26 C20        11.5740   -4.4970  -12.9330 C.ar      1 UNK         0.0000
     27 C21        10.5110   -5.2840  -13.2560 C.ar      1 UNK         0.0000
     28 C22        12.4960   -2.6240  -11.6530 C.ar      1 UNK         0.0000
     29 C23        11.0630   -1.4030  -10.1690 C.ar      1 UNK         0.0000
     30 C24        12.3100   -1.6210  -10.7510 C.ar      1 UNK         0.0000
     31 H1          4.7920   -7.0410   -3.4480 H         1 UNK         0.0000
     32 H2          3.4750   -5.9150   -3.8550 H         1 UNK         0.0000
     33 H3          4.0300   -7.1060   -5.0550 H         1 UNK         0.0000
     34 H4          6.6900   -5.4830   -3.0700 H         1 UNK         0.0000
     35 H5          6.9840   -6.7710   -4.2640 H         1 UNK         0.0000
     36 H6          7.4880   -5.1010   -4.6150 H         1 UNK         0.0000
     37 H7          4.2620   -3.6400   -5.1940 H         1 UNK         0.0000
     38 H8          4.3790   -4.0410   -3.4640 H         1 UNK         0.0000
     39 H9          5.7900   -3.3760   -4.3210 H         1 UNK         0.0000
     40 H10         6.2360   -3.5800   -6.8680 H         1 UNK         0.0000
     41 H11         5.5590   -3.8600  -10.0410 H         1 UNK         0.0000
     42 H12         3.0890   -6.9970   -9.4060 H         1 UNK         0.0000
     43 H13         7.3030   -7.6870   -9.6040 H         1 UNK         0.0000
     44 H14         7.1780   -3.2530  -11.6150 H         1 UNK         0.0000
     45 H15         6.9630   -9.2380  -11.4840 H         1 UNK         0.0000
     46 H16         4.6950   -9.6700  -12.3320 H         1 UNK         0.0000
     47 H17         8.4340   -5.7140  -12.9530 H         1 UNK         0.0000
     48 H18         9.0340   -2.0070  -10.0290 H         1 UNK         0.0000
     49 H19        12.5360   -4.6710  -13.3930 H         1 UNK         0.0000
     50 H20        10.6400   -6.0840  -13.9700 H         1 UNK         0.0000
     51 H21        13.4690   -2.7810  -12.0960 H         1 UNK         0.0000
     52 H22        10.9410   -0.6020   -9.4560 H         1 UNK         0.0000
     53 H23        13.1410   -0.9860  -10.4820 H         1 UNK         0.0000
     54 H24         2.1710   -8.2050  -12.2430 H         1 UNK         0.0000
     55 H25         1.8570   -9.1750  -10.9070 H         1 UNK         0.0000
@<TRIPOS>BOND
     1    1   17 2
     2    2    3 1
     3    2   13 1
     4    2   14 1
     5    3    8 2
     6    4   13 1
     7    4   17 am
     8    4   41 1
     9    5   17 am
    10    5   18 1
    11    5   44 1
    12    6   20 1
    13    6   54 1
    14    6   55 1
    15    7    8 1
    16    7    9 1
    17    7   10 1
    18    7   11 1
    19    8   12 1
    20    9   31 1
    21    9   32 1
    22    9   33 1
    23   10   34 1
    24   10   35 1
    25   10   36 1
    26   11   37 1
    27   11   38 1
    28   11   39 1
    29   12   13 2
    30   12   40 1
    31   14   15 ar
    32   14   16 ar
    33   15   20 ar
    34   15   42 1
    35   16   22 ar
    36   16   43 1
    37   18   19 ar
    38   18   24 ar
    39   19   21 ar
    40   19   25 ar
    41   20   23 ar
    42   21   26 ar
    43   21   28 ar
    44   22   23 ar
    45   22   45 1
    46   23   46 1
    47   24   27 ar
    48   24   47 1
    49   25   29 ar
    50   25   48 1
    51   26   27 ar
    52   26   49 1
    53   27   50 1
    54   28   30 ar
    55   28   51 1
    56   29   30 ar
    57   29   52 1
    58   30   53 1
