@<TRIPOS>MOLECULE
24821094
   57    61     0     0     0
SMALL
NO_CHARGES

@<TRIPOS>ATOM
      1 O1         -4.0600   -6.6020    5.0780 O.2       1 UNK         0.0000
      2 O2          6.8520   -3.8420   -2.2910 O.3       1 UNK         0.0000
      3 N1         -2.3300   -6.4850    3.6890 N.am      1 UNK         0.0000
      4 N2          0.1480   -4.7600    1.5040 N.pl3     1 UNK         0.0000
      5 N3          1.5290   -4.7620    1.2780 N.2       1 UNK         0.0000
      6 N4         -1.7710   -4.1250    0.0570 N.ar      1 UNK         0.0000
      7 N5         -1.1980   -3.4080   -2.0660 N.ar      1 UNK         0.0000
      8 N6          1.0360   -3.2860   -2.8120 N.pl3     1 UNK         0.0000
      9 C1         -0.5060   -5.1610    2.7520 C.3       1 UNK         0.0000
     10 C2          0.4570   -6.0120    3.5830 C.3       1 UNK         0.0000
     11 C3         -1.7600   -5.9820    2.4310 C.3       1 UNK         0.0000
     12 C4         -0.2140   -6.4030    4.9020 C.3       1 UNK         0.0000
     13 C5         -1.4620   -7.2340    4.6080 C.3       1 UNK         0.0000
     14 C6         -0.4940   -4.3220    0.3840 C.ar      1 UNK         0.0000
     15 C7          0.4990   -4.0460   -0.5750 C.ar      1 UNK         0.0000
     16 C8         -3.6230   -6.2590    3.9960 C.2       1 UNK         0.0000
     17 C9          1.7810   -4.3520    0.0580 C.2       1 UNK         0.0000
     18 C10         0.1010   -3.5730   -1.8350 C.ar      1 UNK         0.0000
     19 C11         3.1210   -4.2170   -0.5630 C.ar      1 UNK         0.0000
     20 C12        -4.5050   -5.5970    3.0220 C.2       1 UNK         0.0000
     21 C13        -2.0960   -3.6800   -1.1370 C.ar      1 UNK         0.0000
     22 C14         3.7540   -2.9750   -0.5970 C.ar      1 UNK         0.0000
     23 C15         3.7530   -5.3330   -1.1090 C.ar      1 UNK         0.0000
     24 C16        -5.3970   -6.3100    2.3410 C.2       1 UNK         0.0000
     25 C17         5.0000   -2.8530   -1.1750 C.ar      1 UNK         0.0000
     26 C18         4.9970   -5.2040   -1.6900 C.ar      1 UNK         0.0000
     27 C19         5.6250   -3.9650   -1.7220 C.ar      1 UNK         0.0000
     28 C20         6.9260   -3.3110   -3.5390 C.ar      1 UNK         0.0000
     29 C21         5.8280   -3.3680   -4.3860 C.ar      1 UNK         0.0000
     30 C22         8.0990   -2.7060   -3.9680 C.ar      1 UNK         0.0000
     31 C23         5.9070   -2.8270   -5.6540 C.ar      1 UNK         0.0000
     32 C24         8.1740   -2.1720   -5.2390 C.ar      1 UNK         0.0000
     33 C25         7.0790   -2.2290   -6.0810 C.ar      1 UNK         0.0000
     34 H1         -0.7890   -4.2730    3.3170 H         1 UNK         0.0000
     35 H2          0.7190   -6.9120    3.0270 H         1 UNK         0.0000
     36 H3          1.3600   -5.4380    3.7910 H         1 UNK         0.0000
     37 H4         -1.4930   -6.8220    1.7900 H         1 UNK         0.0000
     38 H5         -2.4910   -5.3510    1.9260 H         1 UNK         0.0000
     39 H6          0.4810   -6.9900    5.5030 H         1 UNK         0.0000
     40 H7         -0.4970   -5.5040    5.4470 H         1 UNK         0.0000
     41 H8         -1.9970   -7.4280    5.5380 H         1 UNK         0.0000
     42 H9         -1.1700   -8.1770    4.1480 H         1 UNK         0.0000
     43 H10        -4.4250   -4.5330    2.8580 H         1 UNK         0.0000
     44 H11        -3.1410   -3.5310   -1.3680 H         1 UNK         0.0000
     45 H12         3.2690   -2.1100   -0.1700 H         1 UNK         0.0000
     46 H13         3.2670   -6.2980   -1.0800 H         1 UNK         0.0000
     47 H14         0.8670   -3.5370   -3.7340 H         1 UNK         0.0000
     48 H15         1.8600   -2.8330   -2.5760 H         1 UNK         0.0000
     49 H16        -6.0420   -5.8250    1.6230 H         1 UNK         0.0000
     50 H17        -5.4770   -7.3750    2.5060 H         1 UNK         0.0000
     51 H18         5.4910   -1.8910   -1.2010 H         1 UNK         0.0000
     52 H19         5.4860   -6.0680   -2.1180 H         1 UNK         0.0000
     53 H20         4.9130   -3.8350   -4.0530 H         1 UNK         0.0000
     54 H21         8.9530   -2.6560   -3.3090 H         1 UNK         0.0000
     55 H22         5.0530   -2.8710   -6.3140 H         1 UNK         0.0000
     56 H23         9.0890   -1.7040   -5.5750 H         1 UNK         0.0000
     57 H24         7.1390   -1.8080   -7.0740 H         1 UNK         0.0000
@<TRIPOS>BOND
     1    1   16 2
     2    2   27 1
     3    2   28 1
     4    3   11 1
     5    3   13 1
     6    3   16 am
     7    4    5 1
     8    4    9 1
     9    4   14 1
    10    5   17 2
    11    6   14 ar
    12    6   21 ar
    13    7   18 ar
    14    7   21 ar
    15    8   18 1
    16    8   47 1
    17    8   48 1
    18    9   10 1
    19    9   11 1
    20    9   34 1
    21   10   12 1
    22   10   35 1
    23   10   36 1
    24   11   37 1
    25   11   38 1
    26   12   13 1
    27   12   39 1
    28   12   40 1
    29   13   41 1
    30   13   42 1
    31   14   15 ar
    32   15   17 1
    33   15   18 ar
    34   16   20 1
    35   17   19 1
    36   19   22 ar
    37   19   23 ar
    38   20   24 2
    39   20   43 1
    40   21   44 1
    41   22   25 ar
    42   22   45 1
    43   23   26 ar
    44   23   46 1
    45   24   49 1
    46   24   50 1
    47   25   27 ar
    48   25   51 1
    49   26   27 ar
    50   26   52 1
    51   28   29 ar
    52   28   30 ar
    53   29   31 ar
    54   29   53 1
    55   30   32 ar
    56   30   54 1
    57   31   33 ar
    58   31   55 1
    59   32   33 ar
    60   32   56 1
    61   33   57 1
