@<TRIPOS>MOLECULE
24821094
   57    61     0     0     0
SMALL
NO_CHARGES

@<TRIPOS>ATOM
      1 O1        -12.2580  -14.6280   11.4940 O.2       1 UNK         0.0000
      2 O2        -10.1340   -1.5120   11.4760 O.3       1 UNK         0.0000
      3 N1        -11.9690  -12.4260   11.5370 N.am      1 UNK         0.0000
      4 N2         -9.9900   -9.2690   11.4570 N.pl3     1 UNK         0.0000
      5 N3        -10.4030   -7.9720   11.1310 N.2       1 UNK         0.0000
      6 N4         -8.1790  -10.1140   12.9340 N.ar      1 UNK         0.0000
      7 N5         -6.9330   -8.4740   13.9880 N.ar      1 UNK         0.0000
      8 N6         -7.3430   -6.1720   13.6900 N.pl3     1 UNK         0.0000
      9 C1        -10.5900  -10.5020   10.9410 C.3       1 UNK         0.0000
     10 C2        -11.6380  -10.1560    9.8810 C.3       1 UNK         0.0000
     11 C3        -11.2630  -11.2620   12.0900 C.3       1 UNK         0.0000
     12 C4        -12.2420  -11.4450    9.3190 C.3       1 UNK         0.0000
     13 C5        -12.9290  -12.2160   10.4450 C.3       1 UNK         0.0000
     14 C6         -8.9400   -9.2060   12.3230 C.ar      1 UNK         0.0000
     15 C7         -8.6840   -7.8420   12.5580 C.ar      1 UNK         0.0000
     16 C8        -11.7360  -13.6630   12.0180 C.2       1 UNK         0.0000
     17 C9         -9.6600   -7.0960   11.7660 C.2       1 UNK         0.0000
     18 C10        -7.6360   -7.4960   13.4260 C.ar      1 UNK         0.0000
     19 C11        -9.7850   -5.6200   11.6890 C.ar      1 UNK         0.0000
     20 C12       -10.8490  -13.8460   13.1780 C.2       1 UNK         0.0000
     21 C13        -7.2080   -9.7420   13.7400 C.ar      1 UNK         0.0000
     22 C14       -10.6640   -4.9480   12.5380 C.ar      1 UNK         0.0000
     23 C15        -9.0210   -4.9010   10.7710 C.ar      1 UNK         0.0000
     24 C16       -11.2740  -14.5270   14.2390 C.2       1 UNK         0.0000
     25 C17       -10.7780   -3.5760   12.4640 C.ar      1 UNK         0.0000
     26 C18        -9.1430   -3.5300   10.6980 C.ar      1 UNK         0.0000
     27 C19       -10.0190   -2.8640   11.5460 C.ar      1 UNK         0.0000
     28 C20        -9.8390   -0.7880   12.5860 C.ar      1 UNK         0.0000
     29 C21        -8.5670   -0.8480   13.1390 C.ar      1 UNK         0.0000
     30 C22       -10.8070    0.0180   13.1680 C.ar      1 UNK         0.0000
     31 C23        -8.2700   -0.1100   14.2670 C.ar      1 UNK         0.0000
     32 C24       -10.5070    0.7490   14.3000 C.ar      1 UNK         0.0000
     33 C25        -9.2390    0.6880   14.8480 C.ar      1 UNK         0.0000
     34 H1         -9.8150  -11.1260   10.4980 H         1 UNK         0.0000
     35 H2        -12.4260   -9.5520   10.3320 H         1 UNK         0.0000
     36 H3        -11.1670   -9.5930    9.0750 H         1 UNK         0.0000
     37 H4        -11.9750  -10.6090   12.5930 H         1 UNK         0.0000
     38 H5        -10.5060  -11.5970   12.7980 H         1 UNK         0.0000
     39 H6        -12.9720  -11.1990    8.5470 H         1 UNK         0.0000
     40 H7        -11.4520  -12.0590    8.8890 H         1 UNK         0.0000
     41 H8        -13.2710  -13.1800   10.0690 H         1 UNK         0.0000
     42 H9        -13.7790  -11.6410   10.8110 H         1 UNK         0.0000
     43 H10        -9.8550  -13.4240   13.1690 H         1 UNK         0.0000
     44 H11        -6.6110  -10.5050   14.2180 H         1 UNK         0.0000
     45 H12       -11.2540   -5.5030   13.2540 H         1 UNK         0.0000
     46 H13        -8.3360   -5.4190   10.1150 H         1 UNK         0.0000
     47 H14        -7.4370   -5.8250   14.5910 H         1 UNK         0.0000
     48 H15        -7.0430   -5.5890   12.9740 H         1 UNK         0.0000
     49 H16       -10.6250  -14.6570   15.0920 H         1 UNK         0.0000
     50 H17       -12.2690  -14.9490   14.2470 H         1 UNK         0.0000
     51 H18       -11.4590   -3.0550   13.1220 H         1 UNK         0.0000
     52 H19        -8.5540   -2.9720    9.9850 H         1 UNK         0.0000
     53 H20        -7.8100   -1.4710   12.6860 H         1 UNK         0.0000
     54 H21       -11.7970    0.0710   12.7370 H         1 UNK         0.0000
     55 H22        -7.2800   -0.1560   14.6990 H         1 UNK         0.0000
     56 H23       -11.2620    1.3730   14.7560 H         1 UNK         0.0000
     57 H24        -9.0050    1.2640   15.7320 H         1 UNK         0.0000
@<TRIPOS>BOND
     1    1   16 2
     2    2   27 1
     3    2   28 1
     4    3   11 1
     5    3   13 1
     6    3   16 am
     7    4    5 1
     8    4    9 1
     9    4   14 1
    10    5   17 2
    11    6   14 ar
    12    6   21 ar
    13    7   18 ar
    14    7   21 ar
    15    8   18 1
    16    8   47 1
    17    8   48 1
    18    9   10 1
    19    9   11 1
    20    9   34 1
    21   10   12 1
    22   10   35 1
    23   10   36 1
    24   11   37 1
    25   11   38 1
    26   12   13 1
    27   12   39 1
    28   12   40 1
    29   13   41 1
    30   13   42 1
    31   14   15 ar
    32   15   17 1
    33   15   18 ar
    34   16   20 1
    35   17   19 1
    36   19   22 ar
    37   19   23 ar
    38   20   24 2
    39   20   43 1
    40   21   44 1
    41   22   25 ar
    42   22   45 1
    43   23   26 ar
    44   23   46 1
    45   24   49 1
    46   24   50 1
    47   25   27 ar
    48   25   51 1
    49   26   27 ar
    50   26   52 1
    51   28   29 ar
    52   28   30 ar
    53   29   31 ar
    54   29   53 1
    55   30   32 ar
    56   30   54 1
    57   31   33 ar
    58   31   55 1
    59   32   33 ar
    60   32   56 1
    61   33   57 1
