@<TRIPOS>MOLECULE
24821094
   57    61     0     0     0
SMALL
NO_CHARGES

@<TRIPOS>ATOM
      1 O1        -11.2760    2.5280   15.1930 O.2       1 UNK         0.0000
      2 O2         -7.8680   -9.9620   15.2370 O.3       1 UNK         0.0000
      3 N1        -10.4020    0.4890   15.0770 N.am      1 UNK         0.0000
      4 N2         -9.0860   -2.5380   13.3460 N.pl3     1 UNK         0.0000
      5 N3         -8.7710   -3.6450   14.1400 N.2       1 UNK         0.0000
      6 N4         -9.7030   -2.3360   10.9470 N.ar      1 UNK         0.0000
      7 N5         -9.7890   -4.3360    9.7880 N.ar      1 UNK         0.0000
      8 N6         -9.3280   -6.4160   10.7990 N.pl3     1 UNK         0.0000
      9 C1         -9.1120   -1.1470   13.8060 C.3       1 UNK         0.0000
     10 C2         -7.9620   -0.9110   14.7870 C.3       1 UNK         0.0000
     11 C3        -10.4440   -0.8660   14.5100 C.3       1 UNK         0.0000
     12 C4         -7.9680    0.5500   15.2420 C.3       1 UNK         0.0000
     13 C5         -9.2840    0.8510   15.9580 C.3       1 UNK         0.0000
     14 C6         -9.3600   -2.9530   12.0780 C.ar      1 UNK         0.0000
     15 C7         -9.2220   -4.3540   12.0660 C.ar      1 UNK         0.0000
     16 C8        -11.3690    1.3840   14.7900 C.2       1 UNK         0.0000
     17 C9         -8.8450   -4.7430   13.4250 C.2       1 UNK         0.0000
     18 C10        -9.4510   -5.0410   10.8640 C.ar      1 UNK         0.0000
     19 C11        -8.5870   -6.1220   13.9040 C.ar      1 UNK         0.0000
     20 C12       -12.5340    0.9770   13.9900 C.2       1 UNK         0.0000
     21 C13        -9.9080   -3.0220    9.8440 C.ar      1 UNK         0.0000
     22 C14        -7.4730   -6.8240   13.4440 C.ar      1 UNK         0.0000
     23 C15        -9.4540   -6.7170   14.8180 C.ar      1 UNK         0.0000
     24 C16       -13.7260    0.8520   14.5670 C.2       1 UNK         0.0000
     25 C17        -7.2360   -8.1070   13.8910 C.ar      1 UNK         0.0000
     26 C18        -9.2150   -8.0020   15.2580 C.ar      1 UNK         0.0000
     27 C19        -8.1040   -8.6990   14.7980 C.ar      1 UNK         0.0000
     28 C20        -8.6790  -10.9550   14.7890 C.ar      1 UNK         0.0000
     29 C21        -9.5740  -11.5670   15.6570 C.ar      1 UNK         0.0000
     30 C22        -8.6190  -11.3570   13.4620 C.ar      1 UNK         0.0000
     31 C23       -10.3970  -12.5760   15.1980 C.ar      1 UNK         0.0000
     32 C24        -9.4410  -12.3700   13.0100 C.ar      1 UNK         0.0000
     33 C25       -10.3320  -12.9780   13.8760 C.ar      1 UNK         0.0000
     34 H1         -9.0050   -0.4790   12.9510 H         1 UNK         0.0000
     35 H2         -8.0830   -1.5630   15.6530 H         1 UNK         0.0000
     36 H3         -7.0140   -1.1350   14.2960 H         1 UNK         0.0000
     37 H4        -10.5950   -1.5910   15.3090 H         1 UNK         0.0000
     38 H5        -11.2590   -0.9350   13.7900 H         1 UNK         0.0000
     39 H6         -7.1350    0.7220   15.9240 H         1 UNK         0.0000
     40 H7         -7.8700    1.2010   14.3750 H         1 UNK         0.0000
     41 H8         -9.3340    1.9140   16.1930 H         1 UNK         0.0000
     42 H9         -9.3390    0.2680   16.8770 H         1 UNK         0.0000
     43 H10       -12.4200    0.7760   12.9350 H         1 UNK         0.0000
     44 H11       -10.1850   -2.4890    8.9460 H         1 UNK         0.0000
     45 H12        -6.7970   -6.3630   12.7390 H         1 UNK         0.0000
     46 H13       -10.3150   -6.1740   15.1800 H         1 UNK         0.0000
     47 H14        -9.6740   -6.8980   10.0310 H         1 UNK         0.0000
     48 H15        -8.8960   -6.8990   11.5210 H         1 UNK         0.0000
     49 H16       -14.5810    0.5490   13.9810 H         1 UNK         0.0000
     50 H17       -13.8380    1.0540   15.6220 H         1 UNK         0.0000
     51 H18        -6.3730   -8.6510   13.5360 H         1 UNK         0.0000
     52 H19        -9.8880   -8.4660   15.9640 H         1 UNK         0.0000
     53 H20        -9.6250  -11.2540   16.6890 H         1 UNK         0.0000
     54 H21        -7.9280  -10.8790   12.7830 H         1 UNK         0.0000
     55 H22       -11.0940  -13.0530   15.8720 H         1 UNK         0.0000
     56 H23        -9.3920  -12.6850   11.9780 H         1 UNK         0.0000
     57 H24       -10.9770  -13.7680   13.5200 H         1 UNK         0.0000
@<TRIPOS>BOND
     1    1   16 2
     2    2   27 1
     3    2   28 1
     4    3   11 1
     5    3   13 1
     6    3   16 am
     7    4    5 1
     8    4    9 1
     9    4   14 1
    10    5   17 2
    11    6   14 ar
    12    6   21 ar
    13    7   18 ar
    14    7   21 ar
    15    8   18 1
    16    8   47 1
    17    8   48 1
    18    9   10 1
    19    9   11 1
    20    9   34 1
    21   10   12 1
    22   10   35 1
    23   10   36 1
    24   11   37 1
    25   11   38 1
    26   12   13 1
    27   12   39 1
    28   12   40 1
    29   13   41 1
    30   13   42 1
    31   14   15 ar
    32   15   17 1
    33   15   18 ar
    34   16   20 1
    35   17   19 1
    36   19   22 ar
    37   19   23 ar
    38   20   24 2
    39   20   43 1
    40   21   44 1
    41   22   25 ar
    42   22   45 1
    43   23   26 ar
    44   23   46 1
    45   24   49 1
    46   24   50 1
    47   25   27 ar
    48   25   51 1
    49   26   27 ar
    50   26   52 1
    51   28   29 ar
    52   28   30 ar
    53   29   31 ar
    54   29   53 1
    55   30   32 ar
    56   30   54 1
    57   31   33 ar
    58   31   55 1
    59   32   33 ar
    60   32   56 1
    61   33   57 1
