@<TRIPOS>MOLECULE
24821094
   57    61     0     0     0
SMALL
NO_CHARGES

@<TRIPOS>ATOM
      1 O1          0.3180  -11.5500   -9.9460 O.2       1 UNK         0.0000
      2 O2         10.0410   -4.2950  -11.1090 O.3       1 UNK         0.0000
      3 N1          1.8130  -10.4460   -8.7300 N.am      1 UNK         0.0000
      4 N2          3.8320   -7.4800   -7.7210 N.pl3     1 UNK         0.0000
      5 N3          4.7400   -7.1540   -8.7340 N.2       1 UNK         0.0000
      6 N4          3.7640   -6.9070   -5.3040 N.ar      1 UNK         0.0000
      7 N5          5.5090   -5.5810   -4.5640 N.ar      1 UNK         0.0000
      8 N6          7.2280   -4.8240   -5.9900 N.pl3     1 UNK         0.0000
      9 C1          2.6340   -8.3050   -7.8920 C.3       1 UNK         0.0000
     10 C2          2.0860   -8.7020   -6.5190 C.3       1 UNK         0.0000
     11 C3          2.9920   -9.5700   -8.6800 C.3       1 UNK         0.0000
     12 C4          0.8160   -9.5370   -6.6960 C.3       1 UNK         0.0000
     13 C5          1.1500  -10.8110   -7.4710 C.3       1 UNK         0.0000
     14 C6          4.2380   -6.9160   -6.5490 C.ar      1 UNK         0.0000
     15 C7          5.4250   -6.2110   -6.8240 C.ar      1 UNK         0.0000
     16 C8          1.3450  -10.9010   -9.9100 C.2       1 UNK         0.0000
     17 C9          5.6960   -6.3980   -8.2490 C.2       1 UNK         0.0000
     18 C10         6.0600   -5.5300   -5.7730 C.ar      1 UNK         0.0000
     19 C11         6.8440   -5.8420   -9.0050 C.ar      1 UNK         0.0000
     20 C12         2.0770  -10.6100  -11.1520 C.2       1 UNK         0.0000
     21 C13         4.3930   -6.2540   -4.3510 C.ar      1 UNK         0.0000
     22 C14         8.1150   -6.3970   -8.8540 C.ar      1 UNK         0.0000
     23 C15         6.6550   -4.7660   -9.8710 C.ar      1 UNK         0.0000
     24 C16         2.0360  -11.4720  -12.1650 C.2       1 UNK         0.0000
     25 C17         9.1800   -5.8780   -9.5580 C.ar      1 UNK         0.0000
     26 C18         7.7250   -4.2480  -10.5690 C.ar      1 UNK         0.0000
     27 C19         8.9900   -4.8040  -10.4170 C.ar      1 UNK         0.0000
     28 C20        10.8600   -3.4180  -10.4730 C.ar      1 UNK         0.0000
     29 C21        11.9910   -3.8770   -9.8110 C.ar      1 UNK         0.0000
     30 C22        10.5710   -2.0610  -10.4860 C.ar      1 UNK         0.0000
     31 C23        12.8220   -2.9820   -9.1660 C.ar      1 UNK         0.0000
     32 C24        11.4020   -1.1720   -9.8340 C.ar      1 UNK         0.0000
     33 C25        12.5280   -1.6310   -9.1770 C.ar      1 UNK         0.0000
     34 H1          1.8770   -7.7410   -8.4370 H         1 UNK         0.0000
     35 H2          2.8340   -9.2880   -5.9850 H         1 UNK         0.0000
     36 H3          1.8540   -7.8040   -5.9470 H         1 UNK         0.0000
     37 H4          3.8110  -10.0900   -8.1830 H         1 UNK         0.0000
     38 H5          3.2880   -9.2980   -9.6920 H         1 UNK         0.0000
     39 H6          0.4130   -9.8000   -5.7180 H         1 UNK         0.0000
     40 H7          0.0760   -8.9600   -7.2510 H         1 UNK         0.0000
     41 H8          0.2320  -11.3570   -7.6860 H         1 UNK         0.0000
     42 H9          1.8170  -11.4330   -6.8740 H         1 UNK         0.0000
     43 H10         2.6510   -9.7000  -11.2400 H         1 UNK         0.0000
     44 H11         3.9800   -6.2690   -3.3530 H         1 UNK         0.0000
     45 H12         8.2630   -7.2340   -8.1870 H         1 UNK         0.0000
     46 H13         5.6710   -4.3370   -9.9940 H         1 UNK         0.0000
     47 H14         7.2220   -4.0420   -6.5640 H         1 UNK         0.0000
     48 H15         8.0530   -5.1100   -5.5680 H         1 UNK         0.0000
     49 H16         2.5770  -11.2610  -13.0750 H         1 UNK         0.0000
     50 H17         1.4620  -12.3830  -12.0750 H         1 UNK         0.0000
     51 H18        10.1640   -6.3070   -9.4430 H         1 UNK         0.0000
     52 H19         7.5800   -3.4120  -11.2380 H         1 UNK         0.0000
     53 H20        12.2210   -4.9320   -9.8030 H         1 UNK         0.0000
     54 H21         9.6940   -1.7000  -11.0040 H         1 UNK         0.0000
     55 H22        13.7030   -3.3380   -8.6510 H         1 UNK         0.0000
     56 H23        11.1740   -0.1160   -9.8410 H         1 UNK         0.0000
     57 H24        13.1790   -0.9330   -8.6700 H         1 UNK         0.0000
@<TRIPOS>BOND
     1    1   16 2
     2    2   27 1
     3    2   28 1
     4    3   11 1
     5    3   13 1
     6    3   16 am
     7    4    5 1
     8    4    9 1
     9    4   14 1
    10    5   17 2
    11    6   14 ar
    12    6   21 ar
    13    7   18 ar
    14    7   21 ar
    15    8   18 1
    16    8   47 1
    17    8   48 1
    18    9   10 1
    19    9   11 1
    20    9   34 1
    21   10   12 1
    22   10   35 1
    23   10   36 1
    24   11   37 1
    25   11   38 1
    26   12   13 1
    27   12   39 1
    28   12   40 1
    29   13   41 1
    30   13   42 1
    31   14   15 ar
    32   15   17 1
    33   15   18 ar
    34   16   20 1
    35   17   19 1
    36   19   22 ar
    37   19   23 ar
    38   20   24 2
    39   20   43 1
    40   21   44 1
    41   22   25 ar
    42   22   45 1
    43   23   26 ar
    44   23   46 1
    45   24   49 1
    46   24   50 1
    47   25   27 ar
    48   25   51 1
    49   26   27 ar
    50   26   52 1
    51   28   29 ar
    52   28   30 ar
    53   29   31 ar
    54   29   53 1
    55   30   32 ar
    56   30   54 1
    57   31   33 ar
    58   31   55 1
    59   32   33 ar
    60   32   56 1
    61   33   57 1
