@<TRIPOS>MOLECULE
24821094
   57    61     0     0     0
SMALL
NO_CHARGES

@<TRIPOS>ATOM
      1 O1          6.7810   -6.0470  -14.8920 O.2       1 UNK         0.0000
      2 O2          6.1500   -3.4260   -2.0480 O.3       1 UNK         0.0000
      3 N1          6.7710   -5.6970  -12.6980 N.am      1 UNK         0.0000
      4 N2          6.1880   -6.5950   -9.1280 N.pl3     1 UNK         0.0000
      5 N3          6.5840   -5.7790   -8.0640 N.2       1 UNK         0.0000
      6 N4          4.3670   -8.2730   -9.3460 N.ar      1 UNK         0.0000
      7 N5          3.0620   -8.5500   -7.4560 N.ar      1 UNK         0.0000
      8 N6          3.4250   -7.3360   -5.4670 N.pl3     1 UNK         0.0000
      9 C1          6.8260   -6.6370  -10.4460 C.3       1 UNK         0.0000
     10 C2          8.2640   -6.1260  -10.3340 C.3       1 UNK         0.0000
     11 C3          6.0470   -5.7470  -11.4210 C.3       1 UNK         0.0000
     12 C4          8.9430   -6.2000  -11.7030 C.3       1 UNK         0.0000
     13 C5          8.1890   -5.3110  -12.6910 C.3       1 UNK         0.0000
     14 C6          5.1190   -7.3500   -8.7470 C.ar      1 UNK         0.0000
     15 C7          4.8260   -7.0010   -7.4150 C.ar      1 UNK         0.0000
     16 C8          6.1490   -6.0050  -13.8530 C.2       1 UNK         0.0000
     17 C9          5.8010   -5.9810   -7.0310 C.2       1 UNK         0.0000
     18 C10         3.7540   -7.6420   -6.7740 C.ar      1 UNK         0.0000
     19 C11         5.8930   -5.3060   -5.7140 C.ar      1 UNK         0.0000
     20 C12         4.7060   -6.2910  -13.8570 C.2       1 UNK         0.0000
     21 C13         3.3720   -8.8470   -8.7050 C.ar      1 UNK         0.0000
     22 C14         6.8250   -5.7390   -4.7710 C.ar      1 UNK         0.0000
     23 C15         5.0520   -4.2340   -5.4180 C.ar      1 UNK         0.0000
     24 C16         4.1020   -6.6450  -14.9880 C.2       1 UNK         0.0000
     25 C17         6.9080   -5.1090   -3.5470 C.ar      1 UNK         0.0000
     26 C18         5.1370   -3.6110   -4.1910 C.ar      1 UNK         0.0000
     27 C19         6.0660   -4.0450   -3.2540 C.ar      1 UNK         0.0000
     28 C20         6.3930   -2.0900   -2.0320 C.ar      1 UNK         0.0000
     29 C21         5.3570   -1.1970   -1.7950 C.ar      1 UNK         0.0000
     30 C22         7.6800   -1.6140   -2.2460 C.ar      1 UNK         0.0000
     31 C23         5.6080    0.1610   -1.7790 C.ar      1 UNK         0.0000
     32 C24         7.9230   -0.2550   -2.2340 C.ar      1 UNK         0.0000
     33 C25         6.8900    0.6320   -1.9980 C.ar      1 UNK         0.0000
     34 H1          6.8310   -7.6630  -10.8160 H         1 UNK         0.0000
     35 H2          8.2560   -5.0920   -9.9870 H         1 UNK         0.0000
     36 H3          8.8140   -6.7420   -9.6220 H         1 UNK         0.0000
     37 H4          5.9630   -4.7420  -11.0100 H         1 UNK         0.0000
     38 H5          5.0530   -6.1640  -11.5810 H         1 UNK         0.0000
     39 H6          9.9740   -5.8570  -11.6180 H         1 UNK         0.0000
     40 H7          8.9300   -7.2290  -12.0600 H         1 UNK         0.0000
     41 H8          8.6070   -5.4400  -13.6890 H         1 UNK         0.0000
     42 H9          8.2820   -4.2690  -12.3850 H         1 UNK         0.0000
     43 H10         4.1370   -6.2100  -12.9430 H         1 UNK         0.0000
     44 H11         2.7830   -9.5910   -9.2210 H         1 UNK         0.0000
     45 H12         7.4810   -6.5660   -4.9990 H         1 UNK         0.0000
     46 H13         4.3330   -3.8940   -6.1490 H         1 UNK         0.0000
     47 H14         4.1180   -7.3000   -4.7890 H         1 UNK         0.0000
     48 H15         2.5020   -7.1580   -5.2280 H         1 UNK         0.0000
     49 H16         3.0420   -6.8510  -14.9920 H         1 UNK         0.0000
     50 H17         4.6720   -6.7270  -15.9020 H         1 UNK         0.0000
     51 H18         7.6290   -5.4430   -2.8160 H         1 UNK         0.0000
     52 H19         4.4830   -2.7830   -3.9600 H         1 UNK         0.0000
     53 H20         4.3560   -1.5640   -1.6240 H         1 UNK         0.0000
     54 H21         8.4890   -2.3070   -2.4250 H         1 UNK         0.0000
     55 H22         4.8020    0.8570   -1.5950 H         1 UNK         0.0000
     56 H23         8.9240    0.1150   -2.4050 H         1 UNK         0.0000
     57 H24         7.0830    1.6950   -1.9860 H         1 UNK         0.0000
@<TRIPOS>BOND
     1    1   16 2
     2    2   27 1
     3    2   28 1
     4    3   11 1
     5    3   13 1
     6    3   16 am
     7    4    5 1
     8    4    9 1
     9    4   14 1
    10    5   17 2
    11    6   14 ar
    12    6   21 ar
    13    7   18 ar
    14    7   21 ar
    15    8   18 1
    16    8   47 1
    17    8   48 1
    18    9   10 1
    19    9   11 1
    20    9   34 1
    21   10   12 1
    22   10   35 1
    23   10   36 1
    24   11   37 1
    25   11   38 1
    26   12   13 1
    27   12   39 1
    28   12   40 1
    29   13   41 1
    30   13   42 1
    31   14   15 ar
    32   15   17 1
    33   15   18 ar
    34   16   20 1
    35   17   19 1
    36   19   22 ar
    37   19   23 ar
    38   20   24 2
    39   20   43 1
    40   21   44 1
    41   22   25 ar
    42   22   45 1
    43   23   26 ar
    44   23   46 1
    45   24   49 1
    46   24   50 1
    47   25   27 ar
    48   25   51 1
    49   26   27 ar
    50   26   52 1
    51   28   29 ar
    52   28   30 ar
    53   29   31 ar
    54   29   53 1
    55   30   32 ar
    56   30   54 1
    57   31   33 ar
    58   31   55 1
    59   32   33 ar
    60   32   56 1
    61   33   57 1
