@<TRIPOS>MOLECULE
24821094
   57    61     0     0     0
SMALL
NO_CHARGES

@<TRIPOS>ATOM
      1 O1         13.2020   -1.0450   -9.2080 O.2       1 UNK         0.0000
      2 O2          3.1430   -8.6230   -8.2390 O.3       1 UNK         0.0000
      3 N1         11.8130   -2.7690   -9.3890 N.am      1 UNK         0.0000
      4 N2          9.3480   -4.9640  -11.1190 N.pl3     1 UNK         0.0000
      5 N3          8.5120   -5.5640  -10.1710 N.2       1 UNK         0.0000
      6 N4          9.1150   -4.6470  -13.5730 N.ar      1 UNK         0.0000
      7 N5          7.1590   -5.4800  -14.4850 N.ar      1 UNK         0.0000
      8 N6          5.5040   -6.5510  -13.1910 N.pl3     1 UNK         0.0000
      9 C1         10.6490   -4.3540  -10.8360 C.3       1 UNK         0.0000
     10 C2         11.6200   -5.4270  -10.3390 C.3       1 UNK         0.0000
     11 C3         10.4850   -3.2800   -9.7540 C.3       1 UNK         0.0000
     12 C4         12.9890   -4.7960  -10.0740 C.3       1 UNK         0.0000
     13 C5         12.8520   -3.7280   -8.9890 C.3       1 UNK         0.0000
     14 C6          8.7660   -5.0420  -12.3490 C.ar      1 UNK         0.0000
     15 C7          7.5330   -5.6990  -12.1780 C.ar      1 UNK         0.0000
     16 C8         12.0750   -1.4480   -9.4260 C.2       1 UNK         0.0000
     17 C9          7.4230   -6.0070  -10.7530 C.2       1 UNK         0.0000
     18 C10         6.7240   -5.9100  -13.3060 C.ar      1 UNK         0.0000
     19 C11         6.2920   -6.6990  -10.0880 C.ar      1 UNK         0.0000
     20 C12        10.9980   -0.4930   -9.7290 C.2       1 UNK         0.0000
     21 C13         8.3240   -4.8680  -14.6010 C.ar      1 UNK         0.0000
     22 C14         5.1220   -5.9990   -9.7940 C.ar      1 UNK         0.0000
     23 C15         6.3950   -8.0500   -9.7610 C.ar      1 UNK         0.0000
     24 C16        10.8310    0.5850   -8.9670 C.2       1 UNK         0.0000
     25 C17         4.0720   -6.6450   -9.1760 C.ar      1 UNK         0.0000
     26 C18         5.3440   -8.6890   -9.1390 C.ar      1 UNK         0.0000
     27 C19         4.1790   -7.9900   -8.8470 C.ar      1 UNK         0.0000
     28 C20         2.8560   -8.2880   -6.9540 C.ar      1 UNK         0.0000
     29 C21         1.6060   -8.5740   -6.4230 C.ar      1 UNK         0.0000
     30 C22         3.8140   -7.6630   -6.1680 C.ar      1 UNK         0.0000
     31 C23         1.3180   -8.2330   -5.1160 C.ar      1 UNK         0.0000
     32 C24         3.5190   -7.3190   -4.8640 C.ar      1 UNK         0.0000
     33 C25         2.2730   -7.6060   -4.3370 C.ar      1 UNK         0.0000
     34 H1         11.0430   -3.8970  -11.7440 H         1 UNK         0.0000
     35 H2         11.2370   -5.8650   -9.4170 H         1 UNK         0.0000
     36 H3         11.7190   -6.2050  -11.0960 H         1 UNK         0.0000
     37 H4         10.0070   -3.7150   -8.8770 H         1 UNK         0.0000
     38 H5          9.8740   -2.4640  -10.1400 H         1 UNK         0.0000
     39 H6         13.6860   -5.5650   -9.7420 H         1 UNK         0.0000
     40 H7         13.3610   -4.3380  -10.9890 H         1 UNK         0.0000
     41 H8         13.8030   -3.2080   -8.8700 H         1 UNK         0.0000
     42 H9         12.5710   -4.2010   -8.0490 H         1 UNK         0.0000
     43 H10        10.3420   -0.6690  -10.5680 H         1 UNK         0.0000
     44 H11         8.6390   -4.5350  -15.5790 H         1 UNK         0.0000
     45 H12         5.0380   -4.9540  -10.0510 H         1 UNK         0.0000
     46 H13         7.2990   -8.5950   -9.9920 H         1 UNK         0.0000
     47 H14         5.3150   -7.3330  -13.7340 H         1 UNK         0.0000
     48 H15         4.8380   -6.2190  -12.5690 H         1 UNK         0.0000
     49 H16        10.0380    1.2840   -9.1880 H         1 UNK         0.0000
     50 H17        11.4890    0.7600   -8.1290 H         1 UNK         0.0000
     51 H18         3.1650   -6.1050   -8.9480 H         1 UNK         0.0000
     52 H19         5.4240   -9.7350   -8.8810 H         1 UNK         0.0000
     53 H20         0.8600   -9.0640   -7.0310 H         1 UNK         0.0000
     54 H21         4.7900   -7.4450   -6.5770 H         1 UNK         0.0000
     55 H22         0.3450   -8.4550   -4.7020 H         1 UNK         0.0000
     56 H23         4.2630   -6.8290   -4.2530 H         1 UNK         0.0000
     57 H24         2.0450   -7.3390   -3.3150 H         1 UNK         0.0000
@<TRIPOS>BOND
     1    1   16 2
     2    2   27 1
     3    2   28 1
     4    3   11 1
     5    3   13 1
     6    3   16 am
     7    4    5 1
     8    4    9 1
     9    4   14 1
    10    5   17 2
    11    6   14 ar
    12    6   21 ar
    13    7   18 ar
    14    7   21 ar
    15    8   18 1
    16    8   47 1
    17    8   48 1
    18    9   10 1
    19    9   11 1
    20    9   34 1
    21   10   12 1
    22   10   35 1
    23   10   36 1
    24   11   37 1
    25   11   38 1
    26   12   13 1
    27   12   39 1
    28   12   40 1
    29   13   41 1
    30   13   42 1
    31   14   15 ar
    32   15   17 1
    33   15   18 ar
    34   16   20 1
    35   17   19 1
    36   19   22 ar
    37   19   23 ar
    38   20   24 2
    39   20   43 1
    40   21   44 1
    41   22   25 ar
    42   22   45 1
    43   23   26 ar
    44   23   46 1
    45   24   49 1
    46   24   50 1
    47   25   27 ar
    48   25   51 1
    49   26   27 ar
    50   26   52 1
    51   28   29 ar
    52   28   30 ar
    53   29   31 ar
    54   29   53 1
    55   30   32 ar
    56   30   54 1
    57   31   33 ar
    58   31   55 1
    59   32   33 ar
    60   32   56 1
    61   33   57 1
