@<TRIPOS>MOLECULE
24821094
   57    61     0     0     0
SMALL
NO_CHARGES

@<TRIPOS>ATOM
      1 O1          1.1600   -9.2830   -6.2540 O.2       1 UNK         0.0000
      2 O2         12.5060   -3.4610  -10.5160 O.3       1 UNK         0.0000
      3 N1          3.2040   -8.6180   -6.8100 N.am      1 UNK         0.0000
      4 N2          5.7570   -6.9550   -8.9560 N.pl3     1 UNK         0.0000
      5 N3          6.8380   -6.0790   -8.8020 N.2       1 UNK         0.0000
      6 N4          5.2260   -8.6490  -10.6950 N.ar      1 UNK         0.0000
      7 N5          6.7980   -8.8430  -12.3810 N.ar      1 UNK         0.0000
      8 N6          8.7590   -7.5370  -12.4540 N.pl3     1 UNK         0.0000
      9 C1          4.6140   -7.0550   -8.0460 C.3       1 UNK         0.0000
     10 C2          4.9710   -6.4110   -6.7040 C.3       1 UNK         0.0000
     11 C3          4.2660   -8.5300   -7.8220 C.3       1 UNK         0.0000
     12 C4          3.7660   -6.4850   -5.7640 C.3       1 UNK         0.0000
     13 C5          3.4060   -7.9500   -5.5170 C.3       1 UNK         0.0000
     14 C6          5.9320   -7.6950  -10.0860 C.ar      1 UNK         0.0000
     15 C7          7.1510   -7.2870  -10.6600 C.ar      1 UNK         0.0000
     16 C8          2.0660   -9.2930   -7.0640 C.2       1 UNK         0.0000
     17 C9          7.6910   -6.2470   -9.7860 C.2       1 UNK         0.0000
     18 C10         7.5710   -7.9020  -11.8500 C.ar      1 UNK         0.0000
     19 C11         8.9630   -5.5110   -9.9790 C.ar      1 UNK         0.0000
     20 C12         1.9210  -10.0420   -8.3230 C.2       1 UNK         0.0000
     21 C13         5.6610   -9.1960  -11.8090 C.ar      1 UNK         0.0000
     22 C14         9.0000   -4.3820  -10.7970 C.ar      1 UNK         0.0000
     23 C15        10.1240   -5.9420   -9.3380 C.ar      1 UNK         0.0000
     24 C16         1.1830  -11.1480   -8.3570 C.2       1 UNK         0.0000
     25 C17        10.1850   -3.7000  -10.9750 C.ar      1 UNK         0.0000
     26 C18        11.3070   -5.2590   -9.5230 C.ar      1 UNK         0.0000
     27 C19        11.3410   -4.1350  -10.3400 C.ar      1 UNK         0.0000
     28 C20        12.6470   -2.2580   -9.9020 C.ar      1 UNK         0.0000
     29 C21        13.0960   -2.1950   -8.5900 C.ar      1 UNK         0.0000
     30 C22        12.3480   -1.0880  -10.5870 C.ar      1 UNK         0.0000
     31 C23        13.2390   -0.9700   -7.9690 C.ar      1 UNK         0.0000
     32 C24        12.4870    0.1330   -9.9590 C.ar      1 UNK         0.0000
     33 C25        12.9350    0.1930   -8.6520 C.ar      1 UNK         0.0000
     34 H1          3.7570   -6.5410   -8.4800 H         1 UNK         0.0000
     35 H2          5.8130   -6.9410   -6.2590 H         1 UNK         0.0000
     36 H3          5.2430   -5.3670   -6.8630 H         1 UNK         0.0000
     37 H4          5.1480   -9.0650   -7.4730 H         1 UNK         0.0000
     38 H5          3.9150   -8.9680   -8.7570 H         1 UNK         0.0000
     39 H6          4.0130   -6.0060   -4.8160 H         1 UNK         0.0000
     40 H7          2.9170   -5.9760   -6.2190 H         1 UNK         0.0000
     41 H8          2.4880   -8.0040   -4.9310 H         1 UNK         0.0000
     42 H9          4.2170   -8.4360   -4.9760 H         1 UNK         0.0000
     43 H10         2.4160   -9.6940   -9.2170 H         1 UNK         0.0000
     44 H11         5.0630   -9.9660  -12.2750 H         1 UNK         0.0000
     45 H12         8.1020   -4.0430  -11.2910 H         1 UNK         0.0000
     46 H13        10.0970   -6.8130   -8.6990 H         1 UNK         0.0000
     47 H14         9.1450   -8.1000  -13.1430 H         1 UNK         0.0000
     48 H15         9.2070   -6.7180  -12.1890 H         1 UNK         0.0000
     49 H16         1.0800  -11.7000   -9.2790 H         1 UNK         0.0000
     50 H17         0.6880  -11.4940   -7.4610 H         1 UNK         0.0000
     51 H18        10.2150   -2.8260  -11.6090 H         1 UNK         0.0000
     52 H19        12.2080   -5.5950   -9.0310 H         1 UNK         0.0000
     53 H20        13.3330   -3.1030   -8.0560 H         1 UNK         0.0000
     54 H21        12.0040   -1.1340  -11.6100 H         1 UNK         0.0000
     55 H22        13.5880   -0.9190   -6.9470 H         1 UNK         0.0000
     56 H23        12.2500    1.0440  -10.4900 H         1 UNK         0.0000
     57 H24        13.0460    1.1510   -8.1630 H         1 UNK         0.0000
@<TRIPOS>BOND
     1    1   16 2
     2    2   27 1
     3    2   28 1
     4    3   11 1
     5    3   13 1
     6    3   16 am
     7    4    5 1
     8    4    9 1
     9    4   14 1
    10    5   17 2
    11    6   14 ar
    12    6   21 ar
    13    7   18 ar
    14    7   21 ar
    15    8   18 1
    16    8   47 1
    17    8   48 1
    18    9   10 1
    19    9   11 1
    20    9   34 1
    21   10   12 1
    22   10   35 1
    23   10   36 1
    24   11   37 1
    25   11   38 1
    26   12   13 1
    27   12   39 1
    28   12   40 1
    29   13   41 1
    30   13   42 1
    31   14   15 ar
    32   15   17 1
    33   15   18 ar
    34   16   20 1
    35   17   19 1
    36   19   22 ar
    37   19   23 ar
    38   20   24 2
    39   20   43 1
    40   21   44 1
    41   22   25 ar
    42   22   45 1
    43   23   26 ar
    44   23   46 1
    45   24   49 1
    46   24   50 1
    47   25   27 ar
    48   25   51 1
    49   26   27 ar
    50   26   52 1
    51   28   29 ar
    52   28   30 ar
    53   29   31 ar
    54   29   53 1
    55   30   32 ar
    56   30   54 1
    57   31   33 ar
    58   31   55 1
    59   32   33 ar
    60   32   56 1
    61   33   57 1
