@<TRIPOS>MOLECULE
24821094
   57    61     0     0     0
SMALL
NO_CHARGES

@<TRIPOS>ATOM
      1 O1          0.6050  -11.8870   -9.3810 O.2       1 UNK         0.0000
      2 O2         10.9420   -3.3550  -10.8480 O.3       1 UNK         0.0000
      3 N1          1.9510  -10.1540   -9.7230 N.am      1 UNK         0.0000
      4 N2          5.0270   -8.1070   -9.2330 N.pl3     1 UNK         0.0000
      5 N3          6.1010   -7.5570   -9.9410 N.2       1 UNK         0.0000
      6 N4          4.0100   -7.5250   -7.0420 N.ar      1 UNK         0.0000
      7 N5          4.9960   -5.7390   -5.9500 N.ar      1 UNK         0.0000
      8 N6          6.8290   -4.5540   -6.8430 N.pl3     1 UNK         0.0000
      9 C1          4.2160   -9.2440   -9.6750 C.3       1 UNK         0.0000
     10 C2          4.2050   -9.3000  -11.2050 C.3       1 UNK         0.0000
     11 C3          2.7800   -9.0770   -9.1650 C.3       1 UNK         0.0000
     12 C4          3.3850  -10.5070  -11.6670 C.3       1 UNK         0.0000
     13 C5          1.9450  -10.3570  -11.1780 C.3       1 UNK         0.0000
     14 C6          4.8570   -7.4250   -8.0660 C.ar      1 UNK         0.0000
     15 C7          5.8390   -6.4170   -8.0340 C.ar      1 UNK         0.0000
     16 C8          1.2160  -10.9440   -8.9160 C.2       1 UNK         0.0000
     17 C9          6.6080   -6.5490   -9.2710 C.2       1 UNK         0.0000
     18 C10         5.8840   -5.5600   -6.9230 C.ar      1 UNK         0.0000
     19 C11         7.7530   -5.7050   -9.6880 C.ar      1 UNK         0.0000
     20 C12         1.1530  -10.6650   -7.4730 C.2       1 UNK         0.0000
     21 C13         4.0910   -6.6990   -6.0210 C.ar      1 UNK         0.0000
     22 C14         8.9970   -5.8640   -9.0770 C.ar      1 UNK         0.0000
     23 C15         7.5900   -4.7550  -10.6950 C.ar      1 UNK         0.0000
     24 C16         0.1090  -11.0800   -6.7610 C.2       1 UNK         0.0000
     25 C17        10.0600   -5.0770   -9.4670 C.ar      1 UNK         0.0000
     26 C18         8.6560   -3.9680  -11.0770 C.ar      1 UNK         0.0000
     27 C19         9.8940   -4.1280  -10.4660 C.ar      1 UNK         0.0000
     28 C20        11.2990   -2.3210  -10.0440 C.ar      1 UNK         0.0000
     29 C21        12.4740   -2.3850   -9.3070 C.ar      1 UNK         0.0000
     30 C22        10.4920   -1.1950   -9.9600 C.ar      1 UNK         0.0000
     31 C23        12.8330   -1.3310   -8.4900 C.ar      1 UNK         0.0000
     32 C24        10.8540   -0.1460   -9.1380 C.ar      1 UNK         0.0000
     33 C25        12.0250   -0.2130   -8.4050 C.ar      1 UNK         0.0000
     34 H1          4.6370  -10.1680   -9.2790 H         1 UNK         0.0000
     35 H2          3.7610   -8.3860  -11.5990 H         1 UNK         0.0000
     36 H3          5.2280   -9.3940  -11.5710 H         1 UNK         0.0000
     37 H4          2.3890   -8.1120   -9.4840 H         1 UNK         0.0000
     38 H5          2.7710   -9.1360   -8.0770 H         1 UNK         0.0000
     39 H6          3.3970  -10.5600  -12.7560 H         1 UNK         0.0000
     40 H7          3.8150  -11.4190  -11.2540 H         1 UNK         0.0000
     41 H8          1.3840  -11.2610  -11.4180 H         1 UNK         0.0000
     42 H9          1.4840   -9.4990  -11.6650 H         1 UNK         0.0000
     43 H10         1.9520  -10.1200   -6.9930 H         1 UNK         0.0000
     44 H11         3.3890   -6.8090   -5.2080 H         1 UNK         0.0000
     45 H12         9.1260   -6.6030   -8.3000 H         1 UNK         0.0000
     46 H13         6.6290   -4.6330  -11.1730 H         1 UNK         0.0000
     47 H14         7.4130   -4.4990   -6.0710 H         1 UNK         0.0000
     48 H15         6.9070   -3.9030   -7.5580 H         1 UNK         0.0000
     49 H16         0.0610  -10.8720   -5.7020 H         1 UNK         0.0000
     50 H17        -0.6900  -11.6260   -7.2410 H         1 UNK         0.0000
     51 H18        11.0230   -5.1990   -8.9940 H         1 UNK         0.0000
     52 H19         8.5300   -3.2280  -11.8540 H         1 UNK         0.0000
     53 H20        13.1060   -3.2580   -9.3730 H         1 UNK         0.0000
     54 H21         9.5800   -1.1400  -10.5360 H         1 UNK         0.0000
     55 H22        13.7480   -1.3800   -7.9160 H         1 UNK         0.0000
     56 H23        10.2240    0.7290   -9.0690 H         1 UNK         0.0000
     57 H24        12.3080    0.6100   -7.7650 H         1 UNK         0.0000
@<TRIPOS>BOND
     1    1   16 2
     2    2   27 1
     3    2   28 1
     4    3   11 1
     5    3   13 1
     6    3   16 am
     7    4    5 1
     8    4    9 1
     9    4   14 1
    10    5   17 2
    11    6   14 ar
    12    6   21 ar
    13    7   18 ar
    14    7   21 ar
    15    8   18 1
    16    8   47 1
    17    8   48 1
    18    9   10 1
    19    9   11 1
    20    9   34 1
    21   10   12 1
    22   10   35 1
    23   10   36 1
    24   11   37 1
    25   11   38 1
    26   12   13 1
    27   12   39 1
    28   12   40 1
    29   13   41 1
    30   13   42 1
    31   14   15 ar
    32   15   17 1
    33   15   18 ar
    34   16   20 1
    35   17   19 1
    36   19   22 ar
    37   19   23 ar
    38   20   24 2
    39   20   43 1
    40   21   44 1
    41   22   25 ar
    42   22   45 1
    43   23   26 ar
    44   23   46 1
    45   24   49 1
    46   24   50 1
    47   25   27 ar
    48   25   51 1
    49   26   27 ar
    50   26   52 1
    51   28   29 ar
    52   28   30 ar
    53   29   31 ar
    54   29   53 1
    55   30   32 ar
    56   30   54 1
    57   31   33 ar
    58   31   55 1
    59   32   33 ar
    60   32   56 1
    61   33   57 1
