@<TRIPOS>MOLECULE
24821094
   57    61     0     0     0
SMALL
NO_CHARGES

@<TRIPOS>ATOM
      1 O1          1.1180   -8.1000   -4.2360 O.2       1 UNK         0.0000
      2 O2         12.1030   -4.2120  -10.8700 O.3       1 UNK         0.0000
      3 N1          3.0410   -7.7160   -5.2790 N.am      1 UNK         0.0000
      4 N2          5.2250   -6.2710   -7.9320 N.pl3     1 UNK         0.0000
      5 N3          6.5100   -5.7190   -7.9780 N.2       1 UNK         0.0000
      6 N4          3.8460   -7.4190   -9.6520 N.ar      1 UNK         0.0000
      7 N5          4.8530   -7.6380  -11.7240 N.ar      1 UNK         0.0000
      8 N6          7.0230   -6.8360  -12.1780 N.pl3     1 UNK         0.0000
      9 C1          4.3500   -6.2800   -6.7570 C.3       1 UNK         0.0000
     10 C2          5.1440   -5.8390   -5.5250 C.3       1 UNK         0.0000
     11 C3          3.8100   -7.6960   -6.5310 C.3       1 UNK         0.0000
     12 C4          4.2220   -5.8150   -4.3040 C.3       1 UNK         0.0000
     13 C5          3.6790   -7.2210   -4.0520 C.3       1 UNK         0.0000
     14 C6          4.9120   -6.7950   -9.1500 C.ar      1 UNK         0.0000
     15 C7          6.0230   -6.5770   -9.9870 C.ar      1 UNK         0.0000
     16 C8          1.7730   -8.1720   -5.2580 C.2       1 UNK         0.0000
     17 C9          7.0220   -5.8840   -9.1750 C.2       1 UNK         0.0000
     18 C10         5.9600   -7.0260  -11.3160 C.ar      1 UNK         0.0000
     19 C11         8.3650   -5.4410   -9.6230 C.ar      1 UNK         0.0000
     20 C12         1.1830   -8.7580   -6.4720 C.2       1 UNK         0.0000
     21 C13         3.8330   -7.8220  -10.9040 C.ar      1 UNK         0.0000
     22 C14         9.5060   -6.0900   -9.1530 C.ar      1 UNK         0.0000
     23 C15         8.4880   -4.3810  -10.5200 C.ar      1 UNK         0.0000
     24 C16         0.8130  -10.0350   -6.4820 C.2       1 UNK         0.0000
     25 C17        10.7530   -5.6760   -9.5710 C.ar      1 UNK         0.0000
     26 C18         9.7380   -3.9690  -10.9300 C.ar      1 UNK         0.0000
     27 C19        10.8730   -4.6170  -10.4600 C.ar      1 UNK         0.0000
     28 C20        12.4710   -2.9300  -10.6120 C.ar      1 UNK         0.0000
     29 C21        12.7560   -2.5360   -9.3120 C.ar      1 UNK         0.0000
     30 C22        12.5690   -2.0130  -11.6490 C.ar      1 UNK         0.0000
     31 C23        13.1310   -1.2320   -9.0540 C.ar      1 UNK         0.0000
     32 C24        12.9400   -0.7090  -11.3850 C.ar      1 UNK         0.0000
     33 C25        13.2230   -0.3190  -10.0890 C.ar      1 UNK         0.0000
     34 H1          3.5170   -5.5950   -6.9180 H         1 UNK         0.0000
     35 H2          5.9610   -6.5380   -5.3510 H         1 UNK         0.0000
     36 H3          5.5500   -4.8410   -5.6930 H         1 UNK         0.0000
     37 H4          4.6410   -8.3970   -6.4600 H         1 UNK         0.0000
     38 H5          3.1620   -7.9760   -7.3610 H         1 UNK         0.0000
     39 H6          4.7830   -5.4790   -3.4310 H         1 UNK         0.0000
     40 H7          3.3920   -5.1340   -4.4870 H         1 UNK         0.0000
     41 H8          2.9460   -7.1880   -3.2460 H         1 UNK         0.0000
     42 H9          4.5000   -7.8820   -3.7750 H         1 UNK         0.0000
     43 H10         1.0530   -8.1510   -7.3550 H         1 UNK         0.0000
     44 H11         2.9530   -8.3230  -11.2780 H         1 UNK         0.0000
     45 H12         9.4130   -6.9150   -8.4620 H         1 UNK         0.0000
     46 H13         7.6050   -3.8800  -10.8900 H         1 UNK         0.0000
     47 H14         7.9330   -6.9250  -11.8530 H         1 UNK         0.0000
     48 H15         6.8600   -6.6140  -13.1090 H         1 UNK         0.0000
     49 H16         0.3840  -10.4660   -7.3740 H         1 UNK         0.0000
     50 H17         0.9430  -10.6420   -5.5970 H         1 UNK         0.0000
     51 H18        11.6380   -6.1770   -9.2070 H         1 UNK         0.0000
     52 H19         9.8350   -3.1450  -11.6220 H         1 UNK         0.0000
     53 H20        12.6850   -3.2480   -8.5040 H         1 UNK         0.0000
     54 H21        12.3540   -2.3180  -12.6630 H         1 UNK         0.0000
     55 H22        13.3530   -0.9240   -8.0420 H         1 UNK         0.0000
     56 H23        13.0120    0.0060  -12.1910 H         1 UNK         0.0000
     57 H24        13.5160    0.7010   -9.8840 H         1 UNK         0.0000
@<TRIPOS>BOND
     1    1   16 2
     2    2   27 1
     3    2   28 1
     4    3   11 1
     5    3   13 1
     6    3   16 am
     7    4    5 1
     8    4    9 1
     9    4   14 1
    10    5   17 2
    11    6   14 ar
    12    6   21 ar
    13    7   18 ar
    14    7   21 ar
    15    8   18 1
    16    8   47 1
    17    8   48 1
    18    9   10 1
    19    9   11 1
    20    9   34 1
    21   10   12 1
    22   10   35 1
    23   10   36 1
    24   11   37 1
    25   11   38 1
    26   12   13 1
    27   12   39 1
    28   12   40 1
    29   13   41 1
    30   13   42 1
    31   14   15 ar
    32   15   17 1
    33   15   18 ar
    34   16   20 1
    35   17   19 1
    36   19   22 ar
    37   19   23 ar
    38   20   24 2
    39   20   43 1
    40   21   44 1
    41   22   25 ar
    42   22   45 1
    43   23   26 ar
    44   23   46 1
    45   24   49 1
    46   24   50 1
    47   25   27 ar
    48   25   51 1
    49   26   27 ar
    50   26   52 1
    51   28   29 ar
    52   28   30 ar
    53   29   31 ar
    54   29   53 1
    55   30   32 ar
    56   30   54 1
    57   31   33 ar
    58   31   55 1
    59   32   33 ar
    60   32   56 1
    61   33   57 1
