@<TRIPOS>MOLECULE
24821094
   57    61     0     0     0
SMALL
NO_CHARGES

@<TRIPOS>ATOM
      1 O1         12.1450   -7.2190  -18.1970 O.2       1 UNK         0.0000
      2 O2          3.8570   -7.9530   -9.1570 O.3       1 UNK         0.0000
      3 N1         10.9170   -6.3810  -16.5470 N.am      1 UNK         0.0000
      4 N2         10.1400   -5.5230  -13.0040 N.pl3     1 UNK         0.0000
      5 N3          8.8920   -6.1190  -12.7900 N.2       1 UNK         0.0000
      6 N4         11.7150   -4.3690  -11.4670 N.ar      1 UNK         0.0000
      7 N5         11.0200   -4.2500   -9.2640 N.ar      1 UNK         0.0000
      8 N6          8.9720   -5.1530   -8.5220 N.pl3     1 UNK         0.0000
      9 C1         10.8300   -5.4450  -14.2940 C.3       1 UNK         0.0000
     10 C2         10.5600   -4.0830  -14.9360 C.3       1 UNK         0.0000
     11 C3         10.3120   -6.5530  -15.2180 C.3       1 UNK         0.0000
     12 C4         11.3070   -3.9880  -16.2680 C.3       1 UNK         0.0000
     13 C5         10.8000   -5.0770  -17.2120 C.3       1 UNK         0.0000
     14 C6         10.6100   -5.0220  -11.8280 C.ar      1 UNK         0.0000
     15 C7          9.6450   -5.3100  -10.8440 C.ar      1 UNK         0.0000
     16 C8         11.5720   -7.3990  -17.1390 C.2       1 UNK         0.0000
     17 C9          8.5630   -6.0210  -11.5230 C.2       1 UNK         0.0000
     18 C10         9.8880   -4.8960   -9.5250 C.ar      1 UNK         0.0000
     19 C11         7.3190   -6.5320  -10.8970 C.ar      1 UNK         0.0000
     20 C12        11.5940   -8.7270  -16.5070 C.2       1 UNK         0.0000
     21 C13        11.8990   -4.0010  -10.2180 C.ar      1 UNK         0.0000
     22 C14         6.1610   -5.7560  -10.9120 C.ar      1 UNK         0.0000
     23 C15         7.3050   -7.7910  -10.2990 C.ar      1 UNK         0.0000
     24 C16        10.9550   -9.7450  -17.0760 C.2       1 UNK         0.0000
     25 C17         5.0060   -6.2330  -10.3290 C.ar      1 UNK         0.0000
     26 C18         6.1480   -8.2610   -9.7140 C.ar      1 UNK         0.0000
     27 C19         4.9950   -7.4850   -9.7300 C.ar      1 UNK         0.0000
     28 C20         3.6960   -7.7770   -7.8190 C.ar      1 UNK         0.0000
     29 C21         4.4190   -6.7960   -7.1550 C.ar      1 UNK         0.0000
     30 C22         2.8050   -8.5750   -7.1150 C.ar      1 UNK         0.0000
     31 C23         4.2530   -6.6200   -5.7950 C.ar      1 UNK         0.0000
     32 C24         2.6480   -8.3980   -5.7550 C.ar      1 UNK         0.0000
     33 C25         3.3690   -7.4200   -5.0960 C.ar      1 UNK         0.0000
     34 H1         11.9020   -5.5710  -14.1410 H         1 UNK         0.0000
     35 H2          9.4900   -3.9690  -15.1110 H         1 UNK         0.0000
     36 H3         10.9050   -3.2920  -14.2690 H         1 UNK         0.0000
     37 H4          9.2280   -6.4830  -15.3000 H         1 UNK         0.0000
     38 H5         10.5900   -7.5250  -14.8140 H         1 UNK         0.0000
     39 H6         11.1340   -3.0090  -16.7150 H         1 UNK         0.0000
     40 H7         12.3740   -4.1250  -16.0970 H         1 UNK         0.0000
     41 H8         11.3990   -5.0770  -18.1230 H         1 UNK         0.0000
     42 H9          9.7560   -4.8850  -17.4590 H         1 UNK         0.0000
     43 H10        12.1260   -8.8740  -15.5790 H         1 UNK         0.0000
     44 H11        12.8050   -3.4730   -9.9610 H         1 UNK         0.0000
     45 H12         6.1680   -4.7820  -11.3800 H         1 UNK         0.0000
     46 H13         8.2000   -8.3960  -10.2900 H         1 UNK         0.0000
     47 H14         9.2760   -5.2820   -7.6100 H         1 UNK         0.0000
     48 H15         8.0260   -5.2050   -8.7310 H         1 UNK         0.0000
     49 H16        10.9680  -10.7190  -16.6100 H         1 UNK         0.0000
     50 H17        10.4240   -9.5980  -18.0050 H         1 UNK         0.0000
     51 H18         4.1080   -5.6330  -10.3400 H         1 UNK         0.0000
     52 H19         6.1370   -9.2340   -9.2460 H         1 UNK         0.0000
     53 H20         5.1100   -6.1710   -7.7010 H         1 UNK         0.0000
     54 H21         2.2370   -9.3350   -7.6300 H         1 UNK         0.0000
     55 H22         4.8160   -5.8560   -5.2770 H         1 UNK         0.0000
     56 H23         1.9570   -9.0210   -5.2060 H         1 UNK         0.0000
     57 H24         3.2410   -7.2800   -4.0310 H         1 UNK         0.0000
@<TRIPOS>BOND
     1    1   16 2
     2    2   27 1
     3    2   28 1
     4    3   11 1
     5    3   13 1
     6    3   16 am
     7    4    5 1
     8    4    9 1
     9    4   14 1
    10    5   17 2
    11    6   14 ar
    12    6   21 ar
    13    7   18 ar
    14    7   21 ar
    15    8   18 1
    16    8   47 1
    17    8   48 1
    18    9   10 1
    19    9   11 1
    20    9   34 1
    21   10   12 1
    22   10   35 1
    23   10   36 1
    24   11   37 1
    25   11   38 1
    26   12   13 1
    27   12   39 1
    28   12   40 1
    29   13   41 1
    30   13   42 1
    31   14   15 ar
    32   15   17 1
    33   15   18 ar
    34   16   20 1
    35   17   19 1
    36   19   22 ar
    37   19   23 ar
    38   20   24 2
    39   20   43 1
    40   21   44 1
    41   22   25 ar
    42   22   45 1
    43   23   26 ar
    44   23   46 1
    45   24   49 1
    46   24   50 1
    47   25   27 ar
    48   25   51 1
    49   26   27 ar
    50   26   52 1
    51   28   29 ar
    52   28   30 ar
    53   29   31 ar
    54   29   53 1
    55   30   32 ar
    56   30   54 1
    57   31   33 ar
    58   31   55 1
    59   32   33 ar
    60   32   56 1
    61   33   57 1
