@<TRIPOS>MOLECULE
24821094
   57    61     0     0     0
SMALL
NO_CHARGES

@<TRIPOS>ATOM
      1 O1         11.2960   -4.3570  -14.0830 O.2       1 UNK         0.0000
      2 O2          5.7500   -3.9470   -2.8950 O.3       1 UNK         0.0000
      3 N1          9.6460   -5.3120  -12.9440 N.am      1 UNK         0.0000
      4 N2          6.9070   -5.4410  -10.4190 N.pl3     1 UNK         0.0000
      5 N3          7.0350   -4.7970   -9.1840 N.2       1 UNK         0.0000
      6 N4          5.5900   -7.4250  -11.1300 N.ar      1 UNK         0.0000
      7 N5          4.3210   -8.4040   -9.4620 N.ar      1 UNK         0.0000
      8 N6          4.2740   -7.5880   -7.2500 N.pl3     1 UNK         0.0000
      9 C1          7.5910   -5.0470  -11.6530 C.3       1 UNK         0.0000
     10 C2          6.8340   -5.6100  -12.8590 C.3       1 UNK         0.0000
     11 C3          9.0190   -5.6040  -11.6470 C.3       1 UNK         0.0000
     12 C4          7.5290   -5.1710  -14.1500 C.3       1 UNK         0.0000
     13 C5          8.9530   -5.7240  -14.1720 C.3       1 UNK         0.0000
     14 C6          6.0530   -6.4950  -10.2940 C.ar      1 UNK         0.0000
     15 C7          5.6230   -6.5180   -8.9540 C.ar      1 UNK         0.0000
     16 C8         10.8310   -4.6730  -13.0050 C.2       1 UNK         0.0000
     17 C9          6.2860   -5.3980   -8.2890 C.2       1 UNK         0.0000
     18 C10         4.7250   -7.5210   -8.5550 C.ar      1 UNK         0.0000
     19 C11         6.1450   -5.0140   -6.8630 C.ar      1 UNK         0.0000
     20 C12        11.5610   -4.3570  -11.7670 C.2       1 UNK         0.0000
     21 C13         4.7490   -8.3450  -10.7100 C.ar      1 UNK         0.0000
     22 C14         5.0870   -4.1990   -6.4610 C.ar      1 UNK         0.0000
     23 C15         7.0650   -5.4730   -5.9220 C.ar      1 UNK         0.0000
     24 C16        12.7680   -3.8020  -11.8310 C.2       1 UNK         0.0000
     25 C17         4.9590   -3.8440   -5.1350 C.ar      1 UNK         0.0000
     26 C18         6.9340   -5.1110   -4.5980 C.ar      1 UNK         0.0000
     27 C19         5.8790   -4.2980   -4.2000 C.ar      1 UNK         0.0000
     28 C20         6.1790   -2.7140   -2.5200 C.ar      1 UNK         0.0000
     29 C21         7.5300   -2.4880   -2.2890 C.ar      1 UNK         0.0000
     30 C22         5.2700   -1.6760   -2.3730 C.ar      1 UNK         0.0000
     31 C23         7.9630   -1.2340   -1.9080 C.ar      1 UNK         0.0000
     32 C24         5.7090   -0.4250   -1.9870 C.ar      1 UNK         0.0000
     33 C25         7.0540   -0.2030   -1.7570 C.ar      1 UNK         0.0000
     34 H1          7.6250   -3.9600  -11.7200 H         1 UNK         0.0000
     35 H2          6.8220   -6.6990  -12.8040 H         1 UNK         0.0000
     36 H3          5.8100   -5.2350  -12.8520 H         1 UNK         0.0000
     37 H4          8.9900   -6.6820  -11.4910 H         1 UNK         0.0000
     38 H5          9.5920   -5.1310  -10.8500 H         1 UNK         0.0000
     39 H6          6.9760   -5.5530  -15.0090 H         1 UNK         0.0000
     40 H7          7.5620   -4.0830  -14.1930 H         1 UNK         0.0000
     41 H8          9.4820   -5.3300  -15.0390 H         1 UNK         0.0000
     42 H9          8.9190   -6.8120  -14.2240 H         1 UNK         0.0000
     43 H10        11.1180   -4.5780  -10.8080 H         1 UNK         0.0000
     44 H11         4.3940   -9.0830  -11.4140 H         1 UNK         0.0000
     45 H12         4.3700   -3.8460   -7.1880 H         1 UNK         0.0000
     46 H13         7.8820   -6.1090   -6.2300 H         1 UNK         0.0000
     47 H14         4.7210   -7.0780   -6.5560 H         1 UNK         0.0000
     48 H15         3.5100   -8.1430   -7.0290 H         1 UNK         0.0000
     49 H16        13.3060   -3.5740  -10.9220 H         1 UNK         0.0000
     50 H17        13.2100   -3.5800  -12.7910 H         1 UNK         0.0000
     51 H18         4.1400   -3.2120   -4.8220 H         1 UNK         0.0000
     52 H19         7.6490   -5.4620   -3.8680 H         1 UNK         0.0000
     53 H20         8.2390   -3.2930   -2.4060 H         1 UNK         0.0000
     54 H21         4.2200   -1.8470   -2.5580 H         1 UNK         0.0000
     55 H22         9.0130   -1.0570   -1.7270 H         1 UNK         0.0000
     56 H23         5.0010    0.3820   -1.8690 H         1 UNK         0.0000
     57 H24         7.3950    0.7780   -1.4590 H         1 UNK         0.0000
@<TRIPOS>BOND
     1    1   16 2
     2    2   27 1
     3    2   28 1
     4    3   11 1
     5    3   13 1
     6    3   16 am
     7    4    5 1
     8    4    9 1
     9    4   14 1
    10    5   17 2
    11    6   14 ar
    12    6   21 ar
    13    7   18 ar
    14    7   21 ar
    15    8   18 1
    16    8   47 1
    17    8   48 1
    18    9   10 1
    19    9   11 1
    20    9   34 1
    21   10   12 1
    22   10   35 1
    23   10   36 1
    24   11   37 1
    25   11   38 1
    26   12   13 1
    27   12   39 1
    28   12   40 1
    29   13   41 1
    30   13   42 1
    31   14   15 ar
    32   15   17 1
    33   15   18 ar
    34   16   20 1
    35   17   19 1
    36   19   22 ar
    37   19   23 ar
    38   20   24 2
    39   20   43 1
    40   21   44 1
    41   22   25 ar
    42   22   45 1
    43   23   26 ar
    44   23   46 1
    45   24   49 1
    46   24   50 1
    47   25   27 ar
    48   25   51 1
    49   26   27 ar
    50   26   52 1
    51   28   29 ar
    52   28   30 ar
    53   29   31 ar
    54   29   53 1
    55   30   32 ar
    56   30   54 1
    57   31   33 ar
    58   31   55 1
    59   32   33 ar
    60   32   56 1
    61   33   57 1
