@<TRIPOS>MOLECULE
24821094
   57    61     0     0     0
SMALL
NO_CHARGES

@<TRIPOS>ATOM
      1 O1         12.0620   -3.6200  -15.2590 O.2       1 UNK         0.0000
      2 O2          4.8100   -4.1640   -4.3820 O.3       1 UNK         0.0000
      3 N1         10.9630   -3.8110  -13.3390 N.am      1 UNK         0.0000
      4 N2          9.1430   -5.6360  -10.6460 N.pl3     1 UNK         0.0000
      5 N3          8.7070   -4.9860   -9.4860 N.2       1 UNK         0.0000
      6 N4          8.3100   -7.6550  -11.8310 N.ar      1 UNK         0.0000
      7 N5          6.4680   -8.6660  -10.8640 N.ar      1 UNK         0.0000
      8 N6          5.4490   -7.8490   -8.9010 N.pl3     1 UNK         0.0000
      9 C1         10.2830   -5.2250  -11.4680 C.3       1 UNK         0.0000
     10 C2         11.2860   -4.4570  -10.6030 C.3       1 UNK         0.0000
     11 C3          9.7960   -4.3180  -12.6040 C.3       1 UNK         0.0000
     12 C4         12.4940   -4.0560  -11.4530 C.3       1 UNK         0.0000
     13 C5         12.0330   -3.1410  -12.5880 C.3       1 UNK         0.0000
     14 C6          8.3440   -6.7120  -10.8900 C.ar      1 UNK         0.0000
     15 C7          7.3770   -6.7450   -9.8670 C.ar      1 UNK         0.0000
     16 C8         11.0520   -3.9630  -14.6750 C.2       1 UNK         0.0000
     17 C9          7.6600   -5.6060   -8.9950 C.2       1 UNK         0.0000
     18 C10         6.4190   -7.7710   -9.8830 C.ar      1 UNK         0.0000
     19 C11         6.9060   -5.2250   -7.7760 C.ar      1 UNK         0.0000
     20 C12         9.9280   -4.5440  -15.4260 C.2       1 UNK         0.0000
     21 C13         7.3930   -8.5980  -11.8050 C.ar      1 UNK         0.0000
     22 C14         7.3840   -5.5900   -6.5170 C.ar      1 UNK         0.0000
     23 C15         5.7230   -4.4970   -7.8850 C.ar      1 UNK         0.0000
     24 C16         9.9180   -4.4910  -16.7550 C.2       1 UNK         0.0000
     25 C17         6.6810   -5.2340   -5.3860 C.ar      1 UNK         0.0000
     26 C18         5.0220   -4.1480   -6.7510 C.ar      1 UNK         0.0000
     27 C19         5.5000   -4.5130   -5.4980 C.ar      1 UNK         0.0000
     28 C20         5.4790   -3.5100   -3.3970 C.ar      1 UNK         0.0000
     29 C21         5.0710   -2.2430   -3.0010 C.ar      1 UNK         0.0000
     30 C22         6.5670   -4.1100   -2.7790 C.ar      1 UNK         0.0000
     31 C23         5.7530   -1.5820   -1.9990 C.ar      1 UNK         0.0000
     32 C24         7.2480   -3.4410   -1.7810 C.ar      1 UNK         0.0000
     33 C25         6.8400   -2.1800   -1.3890 C.ar      1 UNK         0.0000
     34 H1         10.7650   -6.1070  -11.8890 H         1 UNK         0.0000
     35 H2         10.8100   -3.5620  -10.2030 H         1 UNK         0.0000
     36 H3         11.6160   -5.0910   -9.7800 H         1 UNK         0.0000
     37 H4          9.2350   -3.4820  -12.1880 H         1 UNK         0.0000
     38 H5          9.1590   -4.8890  -13.2790 H         1 UNK         0.0000
     39 H6         13.2180   -3.5290  -10.8320 H         1 UNK         0.0000
     40 H7         12.9560   -4.9490  -11.8730 H         1 UNK         0.0000
     41 H8         12.8720   -2.9370  -13.2530 H         1 UNK         0.0000
     42 H9         11.6580   -2.2080  -12.1710 H         1 UNK         0.0000
     43 H10         9.1100   -5.0100  -14.8970 H         1 UNK         0.0000
     44 H11         7.3960   -9.3460  -12.5830 H         1 UNK         0.0000
     45 H12         8.3030   -6.1500   -6.4290 H         1 UNK         0.0000
     46 H13         5.3530   -4.2080   -8.8590 H         1 UNK         0.0000
     47 H14         5.4610   -8.5810   -8.2650 H         1 UNK         0.0000
     48 H15         4.7570   -7.1710   -8.8480 H         1 UNK         0.0000
     49 H16         9.0910   -4.9140  -17.3060 H         1 UNK         0.0000
     50 H17        10.7380   -4.0260  -17.2820 H         1 UNK         0.0000
     51 H18         7.0490   -5.5170   -4.4110 H         1 UNK         0.0000
     52 H19         4.1020   -3.5870   -6.8340 H         1 UNK         0.0000
     53 H20         4.2220   -1.7760   -3.4780 H         1 UNK         0.0000
     54 H21         6.8830   -5.0980   -3.0800 H         1 UNK         0.0000
     55 H22         5.4370   -0.5950   -1.6910 H         1 UNK         0.0000
     56 H23         8.0980   -3.9060   -1.3030 H         1 UNK         0.0000
     57 H24         7.3730   -1.6590   -0.6060 H         1 UNK         0.0000
@<TRIPOS>BOND
     1    1   16 2
     2    2   27 1
     3    2   28 1
     4    3   11 1
     5    3   13 1
     6    3   16 am
     7    4    5 1
     8    4    9 1
     9    4   14 1
    10    5   17 2
    11    6   14 ar
    12    6   21 ar
    13    7   18 ar
    14    7   21 ar
    15    8   18 1
    16    8   47 1
    17    8   48 1
    18    9   10 1
    19    9   11 1
    20    9   34 1
    21   10   12 1
    22   10   35 1
    23   10   36 1
    24   11   37 1
    25   11   38 1
    26   12   13 1
    27   12   39 1
    28   12   40 1
    29   13   41 1
    30   13   42 1
    31   14   15 ar
    32   15   17 1
    33   15   18 ar
    34   16   20 1
    35   17   19 1
    36   19   22 ar
    37   19   23 ar
    38   20   24 2
    39   20   43 1
    40   21   44 1
    41   22   25 ar
    42   22   45 1
    43   23   26 ar
    44   23   46 1
    45   24   49 1
    46   24   50 1
    47   25   27 ar
    48   25   51 1
    49   26   27 ar
    50   26   52 1
    51   28   29 ar
    52   28   30 ar
    53   29   31 ar
    54   29   53 1
    55   30   32 ar
    56   30   54 1
    57   31   33 ar
    58   31   55 1
    59   32   33 ar
    60   32   56 1
    61   33   57 1
