@<TRIPOS>MOLECULE
24821094
   57    61     0     0     0
SMALL
NO_CHARGES

@<TRIPOS>ATOM
      1 O1          1.0910   -8.1680   -4.3170 O.2       1 UNK         0.0000
      2 O2         12.1110   -3.9520  -10.7090 O.3       1 UNK         0.0000
      3 N1          3.0300   -7.7510   -5.3160 N.am      1 UNK         0.0000
      4 N2          5.2510   -6.2380   -7.8990 N.pl3     1 UNK         0.0000
      5 N3          6.5190   -5.6450   -7.9210 N.2       1 UNK         0.0000
      6 N4          3.9420   -7.4260   -9.6450 N.ar      1 UNK         0.0000
      7 N5          4.9930   -7.6090  -11.6980 N.ar      1 UNK         0.0000
      8 N6          7.1440   -6.7380  -12.1120 N.pl3     1 UNK         0.0000
      9 C1          4.3560   -6.2760   -6.7400 C.3       1 UNK         0.0000
     10 C2          5.1250   -5.8570   -5.4850 C.3       1 UNK         0.0000
     11 C3          3.8200   -7.7000   -6.5540 C.3       1 UNK         0.0000
     12 C4          4.1820   -5.8650   -4.2800 C.3       1 UNK         0.0000
     13 C5          3.6430   -7.2790   -4.0680 C.3       1 UNK         0.0000
     14 C6          4.9780   -6.7690   -9.1230 C.ar      1 UNK         0.0000
     15 C7          6.0960   -6.5150   -9.9390 C.ar      1 UNK         0.0000
     16 C8          1.7650   -8.2150   -5.3280 C.2       1 UNK         0.0000
     17 C9          7.0580   -5.7910   -9.1080 C.2       1 UNK         0.0000
     18 C10         6.0720   -6.9630  -11.2690 C.ar      1 UNK         0.0000
     19 C11         8.3940   -5.3060   -9.5310 C.ar      1 UNK         0.0000
     20 C12         1.2000   -8.7780   -6.5640 C.2       1 UNK         0.0000
     21 C13         3.9650   -7.8270  -10.8980 C.ar      1 UNK         0.0000
     22 C14         8.4980   -4.2430  -10.4290 C.ar      1 UNK         0.0000
     23 C15         9.5470   -5.9060   -9.0280 C.ar      1 UNK         0.0000
     24 C16         0.8320  -10.0560   -6.6050 C.2       1 UNK         0.0000
     25 C17         9.7420   -3.7940  -10.8210 C.ar      1 UNK         0.0000
     26 C18        10.7870   -5.4550   -9.4270 C.ar      1 UNK         0.0000
     27 C19        10.8880   -4.3970  -10.3220 C.ar      1 UNK         0.0000
     28 C20        12.4810   -2.6980  -10.3400 C.ar      1 UNK         0.0000
     29 C21        12.5420   -1.6840  -11.2860 C.ar      1 UNK         0.0000
     30 C22        12.7920   -2.4260   -9.0150 C.ar      1 UNK         0.0000
     31 C23        12.9170   -0.4100  -10.9070 C.ar      1 UNK         0.0000
     32 C24        13.1720   -1.1520   -8.6430 C.ar      1 UNK         0.0000
     33 C25        13.2320   -0.1440   -9.5870 C.ar      1 UNK         0.0000
     34 H1          3.5220   -5.5930   -6.9020 H         1 UNK         0.0000
     35 H2          5.9440   -6.5550   -5.3110 H         1 UNK         0.0000
     36 H3          5.5280   -4.8540   -5.6250 H         1 UNK         0.0000
     37 H4          4.6550   -8.3980   -6.4830 H         1 UNK         0.0000
     38 H5          3.1890   -7.9670   -7.4010 H         1 UNK         0.0000
     39 H6          4.7250   -5.5440   -3.3910 H         1 UNK         0.0000
     40 H7          3.3510   -5.1850   -4.4640 H         1 UNK         0.0000
     41 H8          2.8950   -7.2670   -3.2750 H         1 UNK         0.0000
     42 H9          4.4630   -7.9410   -3.7900 H         1 UNK         0.0000
     43 H10         1.0870   -8.1550   -7.4380 H         1 UNK         0.0000
     44 H11         3.1080   -8.3560  -11.2880 H         1 UNK         0.0000
     45 H12         7.6070   -3.7730  -10.8160 H         1 UNK         0.0000
     46 H13         9.4680   -6.7250   -8.3290 H         1 UNK         0.0000
     47 H14         7.7260   -5.9760  -11.9630 H         1 UNK         0.0000
     48 H15         7.3150   -7.3420  -12.8520 H         1 UNK         0.0000
     49 H16         0.4200  -10.4700   -7.5140 H         1 UNK         0.0000
     50 H17         0.9440  -10.6780   -5.7290 H         1 UNK         0.0000
     51 H18         9.8240   -2.9710  -11.5160 H         1 UNK         0.0000
     52 H19        11.6810   -5.9220   -9.0410 H         1 UNK         0.0000
     53 H20        12.2960   -1.8910  -12.3170 H         1 UNK         0.0000
     54 H21        12.7400   -3.2120   -8.2760 H         1 UNK         0.0000
     55 H22        12.9650    0.3800  -11.6430 H         1 UNK         0.0000
     56 H23        13.4180   -0.9410   -7.6120 H         1 UNK         0.0000
     57 H24        13.5260    0.8540   -9.2940 H         1 UNK         0.0000
@<TRIPOS>BOND
     1    1   16 2
     2    2   27 1
     3    2   28 1
     4    3   11 1
     5    3   13 1
     6    3   16 am
     7    4    5 1
     8    4    9 1
     9    4   14 1
    10    5   17 2
    11    6   14 ar
    12    6   21 ar
    13    7   18 ar
    14    7   21 ar
    15    8   18 1
    16    8   47 1
    17    8   48 1
    18    9   10 1
    19    9   11 1
    20    9   34 1
    21   10   12 1
    22   10   35 1
    23   10   36 1
    24   11   37 1
    25   11   38 1
    26   12   13 1
    27   12   39 1
    28   12   40 1
    29   13   41 1
    30   13   42 1
    31   14   15 ar
    32   15   17 1
    33   15   18 ar
    34   16   20 1
    35   17   19 1
    36   19   22 ar
    37   19   23 ar
    38   20   24 2
    39   20   43 1
    40   21   44 1
    41   22   25 ar
    42   22   45 1
    43   23   26 ar
    44   23   46 1
    45   24   49 1
    46   24   50 1
    47   25   27 ar
    48   25   51 1
    49   26   27 ar
    50   26   52 1
    51   28   29 ar
    52   28   30 ar
    53   29   31 ar
    54   29   53 1
    55   30   32 ar
    56   30   54 1
    57   31   33 ar
    58   31   55 1
    59   32   33 ar
    60   32   56 1
    61   33   57 1
