@<TRIPOS>MOLECULE
24821094
   57    61     0     0     0
SMALL
NO_CHARGES

@<TRIPOS>ATOM
      1 O1          7.0050   -6.2680  -16.2630 O.2       1 UNK         0.0000
      2 O2          4.7850   -4.2080   -3.4180 O.3       1 UNK         0.0000
      3 N1          6.6760   -5.9430  -14.0900 N.am      1 UNK         0.0000
      4 N2          5.6260   -6.9000  -10.6450 N.pl3     1 UNK         0.0000
      5 N3          5.9210   -6.1900   -9.4760 N.2       1 UNK         0.0000
      6 N4          3.7410   -8.4060  -11.2420 N.ar      1 UNK         0.0000
      7 N5          2.1600   -8.7010   -9.5800 N.ar      1 UNK         0.0000
      8 N6          2.3160   -7.6540   -7.4730 N.pl3     1 UNK         0.0000
      9 C1          6.4440   -6.9070  -11.8600 C.3       1 UNK         0.0000
     10 C2          7.8350   -6.3530  -11.5420 C.3       1 UNK         0.0000
     11 C3          5.7810   -6.0310  -12.9280 C.3       1 UNK         0.0000
     12 C4          8.7010   -6.3900  -12.8030 C.3       1 UNK         0.0000
     13 C5          8.0650   -5.5130  -13.8810 C.3       1 UNK         0.0000
     14 C6          4.4620   -7.5890  -10.4750 C.ar      1 UNK         0.0000
     15 C7          4.0050   -7.3060   -9.1740 C.ar      1 UNK         0.0000
     16 C8          6.2320   -6.2570  -15.3240 C.2       1 UNK         0.0000
     17 C9          4.9840   -6.3960   -8.5810 C.2       1 UNK         0.0000
     18 C10         2.8080   -7.8980   -8.7410 C.ar      1 UNK         0.0000
     19 C11         4.9310   -5.8190   -7.2160 C.ar      1 UNK         0.0000
     20 C12         4.8140   -6.5880  -15.5330 C.2       1 UNK         0.0000
     21 C13         2.6260   -8.9380  -10.7930 C.ar      1 UNK         0.0000
     22 C14         5.0700   -4.4420   -7.0350 C.ar      1 UNK         0.0000
     23 C15         4.7380   -6.6480   -6.1130 C.ar      1 UNK         0.0000
     24 C16         4.4770   -7.5750  -16.3580 C.2       1 UNK         0.0000
     25 C17         5.0210   -3.9080   -5.7650 C.ar      1 UNK         0.0000
     26 C18         4.6950   -6.1090   -4.8450 C.ar      1 UNK         0.0000
     27 C19         4.8330   -4.7370   -4.6670 C.ar      1 UNK         0.0000
     28 C20         5.8540   -3.4890   -2.9880 C.ar      1 UNK         0.0000
     29 C21         5.7110   -2.1410   -2.6890 C.ar      1 UNK         0.0000
     30 C22         7.0910   -4.1010   -2.8420 C.ar      1 UNK         0.0000
     31 C23         6.7990   -1.4130   -2.2510 C.ar      1 UNK         0.0000
     32 C24         8.1770   -3.3670   -2.4090 C.ar      1 UNK         0.0000
     33 C25         8.0320   -2.0250   -2.1120 C.ar      1 UNK         0.0000
     34 H1          6.5350   -7.9270  -12.2320 H         1 UNK         0.0000
     35 H2          7.7450   -5.3240  -11.1930 H         1 UNK         0.0000
     36 H3          8.2990   -6.9600  -10.7640 H         1 UNK         0.0000
     37 H4          5.6070   -5.0330  -12.5260 H         1 UNK         0.0000
     38 H5          4.8340   -6.4760  -13.2290 H         1 UNK         0.0000
     39 H6          9.6990   -6.0160  -12.5710 H         1 UNK         0.0000
     40 H7          8.7720   -7.4150  -13.1650 H         1 UNK         0.0000
     41 H8          8.6240   -5.6180  -14.8110 H         1 UNK         0.0000
     42 H9          8.0810   -4.4730  -13.5570 H         1 UNK         0.0000
     43 H10         4.0480   -6.0270  -15.0190 H         1 UNK         0.0000
     44 H11         2.0670   -9.5970  -11.4410 H         1 UNK         0.0000
     45 H12         5.2150   -3.7970   -7.8880 H         1 UNK         0.0000
     46 H13         4.6250   -7.7140   -6.2510 H         1 UNK         0.0000
     47 H14         2.4640   -8.2980   -6.7630 H         1 UNK         0.0000
     48 H15         1.8230   -6.8380   -7.2920 H         1 UNK         0.0000
     49 H16         3.4350   -7.8150  -16.5150 H         1 UNK         0.0000
     50 H17         5.2440   -8.1360  -16.8710 H         1 UNK         0.0000
     51 H18         5.1280   -2.8430   -5.6230 H         1 UNK         0.0000
     52 H19         4.5490   -6.7510   -3.9890 H         1 UNK         0.0000
     53 H20         4.7490   -1.6630   -2.7980 H         1 UNK         0.0000
     54 H21         7.2040   -5.1510   -3.0690 H         1 UNK         0.0000
     55 H22         6.6890   -0.3630   -2.0180 H         1 UNK         0.0000
     56 H23         9.1410   -3.8420   -2.2990 H         1 UNK         0.0000
     57 H24         8.8820   -1.4520   -1.7700 H         1 UNK         0.0000
@<TRIPOS>BOND
     1    1   16 2
     2    2   27 1
     3    2   28 1
     4    3   11 1
     5    3   13 1
     6    3   16 am
     7    4    5 1
     8    4    9 1
     9    4   14 1
    10    5   17 2
    11    6   14 ar
    12    6   21 ar
    13    7   18 ar
    14    7   21 ar
    15    8   18 1
    16    8   47 1
    17    8   48 1
    18    9   10 1
    19    9   11 1
    20    9   34 1
    21   10   12 1
    22   10   35 1
    23   10   36 1
    24   11   37 1
    25   11   38 1
    26   12   13 1
    27   12   39 1
    28   12   40 1
    29   13   41 1
    30   13   42 1
    31   14   15 ar
    32   15   17 1
    33   15   18 ar
    34   16   20 1
    35   17   19 1
    36   19   22 ar
    37   19   23 ar
    38   20   24 2
    39   20   43 1
    40   21   44 1
    41   22   25 ar
    42   22   45 1
    43   23   26 ar
    44   23   46 1
    45   24   49 1
    46   24   50 1
    47   25   27 ar
    48   25   51 1
    49   26   27 ar
    50   26   52 1
    51   28   29 ar
    52   28   30 ar
    53   29   31 ar
    54   29   53 1
    55   30   32 ar
    56   30   54 1
    57   31   33 ar
    58   31   55 1
    59   32   33 ar
    60   32   56 1
    61   33   57 1
