@<TRIPOS>MOLECULE
24821094
   57    61     0     0     0
SMALL
NO_CHARGES

@<TRIPOS>ATOM
      1 O1         13.3250   -0.7100  -11.3320 O.2       1 UNK         0.0000
      2 O2          4.1350   -6.4700   -5.8630 O.3       1 UNK         0.0000
      3 N1         11.9420   -2.4470  -11.2740 N.am      1 UNK         0.0000
      4 N2          8.6820   -4.1960  -11.7230 N.pl3     1 UNK         0.0000
      5 N3          8.2490   -4.3810  -10.4050 N.2       1 UNK         0.0000
      6 N4          7.6950   -4.8600  -13.9050 N.ar      1 UNK         0.0000
      7 N5          5.6810   -5.9900  -13.7630 N.ar      1 UNK         0.0000
      8 N6          4.6350   -6.4780  -11.7070 N.pl3     1 UNK         0.0000
      9 C1          9.9180   -3.5180  -12.1190 C.3       1 UNK         0.0000
     10 C2         10.8230   -4.5010  -12.8650 C.3       1 UNK         0.0000
     11 C3         10.6450   -3.0070  -10.8700 C.3       1 UNK         0.0000
     12 C4         12.1010   -3.7850  -13.3090 C.3       1 UNK         0.0000
     13 C5         12.8500   -3.2760  -12.0780 C.3       1 UNK         0.0000
     14 C6          7.7770   -4.7480  -12.5790 C.ar      1 UNK         0.0000
     15 C7          6.7450   -5.2910  -11.7900 C.ar      1 UNK         0.0000
     16 C8         12.2890   -1.1940  -10.9170 C.2       1 UNK         0.0000
     17 C9          7.1020   -5.0200  -10.3990 C.2       1 UNK         0.0000
     18 C10         5.6730   -5.9280  -12.4350 C.ar      1 UNK         0.0000
     19 C11         6.3180   -5.4030   -9.2000 C.ar      1 UNK         0.0000
     20 C12        11.4160   -0.4140  -10.0280 C.2       1 UNK         0.0000
     21 C13         6.6700   -5.4660  -14.4640 C.ar      1 UNK         0.0000
     22 C14         6.2040   -6.7460   -8.8390 C.ar      1 UNK         0.0000
     23 C15         5.6980   -4.4220   -8.4280 C.ar      1 UNK         0.0000
     24 C16        11.9390    0.5050   -9.2210 C.2       1 UNK         0.0000
     25 C17         5.4740   -7.0980   -7.7240 C.ar      1 UNK         0.0000
     26 C18         4.9650   -4.7810   -7.3170 C.ar      1 UNK         0.0000
     27 C19         4.8530   -6.1190   -6.9600 C.ar      1 UNK         0.0000
     28 C20         3.1770   -7.4230   -6.0040 C.ar      1 UNK         0.0000
     29 C21         2.4410   -7.8380   -4.9030 C.ar      1 UNK         0.0000
     30 C22         2.9290   -7.9800   -7.2510 C.ar      1 UNK         0.0000
     31 C23         1.4670   -8.8060   -5.0510 C.ar      1 UNK         0.0000
     32 C24         1.9580   -8.9510   -7.3920 C.ar      1 UNK         0.0000
     33 C25         1.2260   -9.3630   -6.2930 C.ar      1 UNK         0.0000
     34 H1          9.6790   -2.6760  -12.7700 H         1 UNK         0.0000
     35 H2         11.0810   -5.3290  -12.2060 H         1 UNK         0.0000
     36 H3         10.2990   -4.8840  -13.7410 H         1 UNK         0.0000
     37 H4         10.8040   -3.8330  -10.1770 H         1 UNK         0.0000
     38 H5         10.0470   -2.2340  -10.3900 H         1 UNK         0.0000
     39 H6         12.7350   -4.4790  -13.8600 H         1 UNK         0.0000
     40 H7         11.8420   -2.9420  -13.9490 H         1 UNK         0.0000
     41 H8         13.7050   -2.6790  -12.3940 H         1 UNK         0.0000
     42 H9         13.1920   -4.1240  -11.4860 H         1 UNK         0.0000
     43 H10        10.3500   -0.5890  -10.0280 H         1 UNK         0.0000
     44 H11         6.6360   -5.5400  -15.5410 H         1 UNK         0.0000
     45 H12         6.6880   -7.5070   -9.4320 H         1 UNK         0.0000
     46 H13         5.7880   -3.3810   -8.7030 H         1 UNK         0.0000
     47 H14         4.8230   -6.9810  -10.8980 H         1 UNK         0.0000
     48 H15         3.7190   -6.3610  -12.0030 H         1 UNK         0.0000
     49 H16        11.2980    1.0750   -8.5650 H         1 UNK         0.0000
     50 H17        13.0050    0.6810   -9.2220 H         1 UNK         0.0000
     51 H18         5.3860   -8.1380   -7.4440 H         1 UNK         0.0000
     52 H19         4.4800   -4.0220   -6.7210 H         1 UNK         0.0000
     53 H20         2.6290   -7.4030   -3.9330 H         1 UNK         0.0000
     54 H21         3.4970   -7.6550   -8.1100 H         1 UNK         0.0000
     55 H22         0.8930   -9.1300   -4.1940 H         1 UNK         0.0000
     56 H23         1.7680   -9.3880   -8.3610 H         1 UNK         0.0000
     57 H24         0.4640  -10.1210   -6.4060 H         1 UNK         0.0000
@<TRIPOS>BOND
     1    1   16 2
     2    2   27 1
     3    2   28 1
     4    3   11 1
     5    3   13 1
     6    3   16 am
     7    4    5 1
     8    4    9 1
     9    4   14 1
    10    5   17 2
    11    6   14 ar
    12    6   21 ar
    13    7   18 ar
    14    7   21 ar
    15    8   18 1
    16    8   47 1
    17    8   48 1
    18    9   10 1
    19    9   11 1
    20    9   34 1
    21   10   12 1
    22   10   35 1
    23   10   36 1
    24   11   37 1
    25   11   38 1
    26   12   13 1
    27   12   39 1
    28   12   40 1
    29   13   41 1
    30   13   42 1
    31   14   15 ar
    32   15   17 1
    33   15   18 ar
    34   16   20 1
    35   17   19 1
    36   19   22 ar
    37   19   23 ar
    38   20   24 2
    39   20   43 1
    40   21   44 1
    41   22   25 ar
    42   22   45 1
    43   23   26 ar
    44   23   46 1
    45   24   49 1
    46   24   50 1
    47   25   27 ar
    48   25   51 1
    49   26   27 ar
    50   26   52 1
    51   28   29 ar
    52   28   30 ar
    53   29   31 ar
    54   29   53 1
    55   30   32 ar
    56   30   54 1
    57   31   33 ar
    58   31   55 1
    59   32   33 ar
    60   32   56 1
    61   33   57 1
