@<TRIPOS>MOLECULE
10302451
   70    75     0     0     0
SMALL
NO_CHARGES

@<TRIPOS>ATOM
      1 Cl1         4.6790   -5.9740  -12.8420 Cl        1 UNK         0.0000
      2 O1          7.2170   -5.8730  -10.4470 O.3       1 UNK         0.0000
      3 O2         11.1110   -4.4750  -10.6610 O.3       1 UNK         0.0000
      4 O3          5.3340   -4.9130   -6.1910 O.3       1 UNK         0.0000
      5 O4          7.3890  -10.4270  -13.1960 O.3       1 UNK         0.0000
      6 O5          6.7020  -10.8870  -15.3050 O.3       1 UNK         0.0000
      7 N1          6.2260   -4.1240   -3.5090 N.3       1 UNK         0.0000
      8 N2          6.3140   -1.9370   -1.6880 N.3       1 UNK         0.0000
      9 N3          6.5260   -7.9870  -11.6700 N.pl3     1 UNK         0.0000
     10 N4          4.0540   -8.8700   -8.5090 N.ar      1 UNK         0.0000
     11 N5          4.9550   -9.3650  -10.5830 N.ar      1 UNK         0.0000
     12 C1          7.1960   -4.1050   -2.4050 C.3       1 UNK         0.0000
     13 C2          4.9990   -3.4040   -3.1410 C.3       1 UNK         0.0000
     14 C3          7.5420   -2.6560   -2.0570 C.3       1 UNK         0.0000
     15 C4          5.3450   -1.9540   -2.7930 C.3       1 UNK         0.0000
     16 C5          5.9250   -5.5000   -3.9230 C.3       1 UNK         0.0000
     17 C6          8.3980   -5.1440  -10.1070 C.3       1 UNK         0.0000
     18 C7          9.5450   -6.1220   -9.8390 C.3       1 UNK         0.0000
     19 C8          8.7850   -4.2250  -11.2700 C.3       1 UNK         0.0000
     20 C9          4.8230   -5.4840   -4.9850 C.3       1 UNK         0.0000
     21 C10         6.6150   -0.5600   -1.2740 C.3       1 UNK         0.0000
     22 C11        10.8250   -5.3300   -9.5530 C.3       1 UNK         0.0000
     23 C12        10.0940   -3.5070  -10.9290 C.3       1 UNK         0.0000
     24 C13         6.3860   -6.2090   -9.4280 C.ar      1 UNK         0.0000
     25 C14         5.4250   -5.7320   -7.2710 C.ar      1 UNK         0.0000
     26 C15         5.6300   -7.3920   -9.4930 C.ar      1 UNK         0.0000
     27 C16         6.2760   -5.3930   -8.3230 C.ar      1 UNK         0.0000
     28 C17         4.7650   -7.7350   -8.4240 C.ar      1 UNK         0.0000
     29 C18         4.6770   -6.8920   -7.3110 C.ar      1 UNK         0.0000
     30 C19         5.7020   -8.2660  -10.6000 C.ar      1 UNK         0.0000
     31 C20         6.1050   -8.2780  -12.9740 C.ar      1 UNK         0.0000
     32 C21         4.1610   -9.6450   -9.5630 C.ar      1 UNK         0.0000
     33 C22         6.5560   -9.4280  -13.6130 C.ar      1 UNK         0.0000
     34 C23         6.1300   -9.7130  -14.9050 C.ar      1 UNK         0.0000
     35 C24         5.2390   -7.4130  -13.6340 C.ar      1 UNK         0.0000
     36 C25         5.2650   -8.8460  -15.5560 C.ar      1 UNK         0.0000
     37 C26         4.8220   -7.7010  -14.9210 C.ar      1 UNK         0.0000
     38 C27         7.1540  -11.5260  -14.0960 C.3       1 UNK         0.0000
     39 H1          8.1000   -4.6330   -2.7070 H         1 UNK         0.0000
     40 H2          6.7620   -4.5950   -1.5330 H         1 UNK         0.0000
     41 H3          4.5400   -3.8860   -2.2770 H         1 UNK         0.0000
     42 H4          4.3020   -3.4200   -3.9790 H         1 UNK         0.0000
     43 H5          8.0000   -2.1740   -2.9210 H         1 UNK         0.0000
     44 H6          8.2380   -2.6390   -1.2190 H         1 UNK         0.0000
     45 H7          4.4400   -1.4270   -2.4910 H         1 UNK         0.0000
     46 H8          5.7780   -1.4640   -3.6650 H         1 UNK         0.0000
     47 H9          6.8220   -5.9600   -4.3380 H         1 UNK         0.0000
     48 H10         5.5890   -6.0740   -3.0600 H         1 UNK         0.0000
     49 H11         8.2130   -4.5450   -9.2140 H         1 UNK         0.0000
     50 H12         9.3010   -6.7430   -8.9770 H         1 UNK         0.0000
     51 H13         9.6970   -6.7550  -10.7130 H         1 UNK         0.0000
     52 H14         8.9210   -4.8210  -12.1730 H         1 UNK         0.0000
     53 H15         7.9980   -3.4900  -11.4310 H         1 UNK         0.0000
     54 H16         4.4900   -6.5030   -5.1780 H         1 UNK         0.0000
     55 H17         3.9830   -4.8890   -4.6280 H         1 UNK         0.0000
     56 H18         7.4880   -0.2000   -1.8170 H         1 UNK         0.0000
     57 H19         5.7610    0.0800   -1.4960 H         1 UNK         0.0000
     58 H20         6.8170   -0.5380   -0.2030 H         1 UNK         0.0000
     59 H21        10.6870   -4.7290   -8.6540 H         1 UNK         0.0000
     60 H22        11.6540   -6.0210   -9.4030 H         1 UNK         0.0000
     61 H23         9.9460   -2.8820  -10.0490 H         1 UNK         0.0000
     62 H24        10.3970   -2.8850  -11.7710 H         1 UNK         0.0000
     63 H25         6.8560   -4.4830   -8.2700 H         1 UNK         0.0000
     64 H26         4.0250   -7.1450   -6.4890 H         1 UNK         0.0000
     65 H27         7.3990   -7.5900  -11.5200 H         1 UNK         0.0000
     66 H28         3.5740  -10.5500   -9.6000 H         1 UNK         0.0000
     67 H29         4.9380   -9.0650  -16.5610 H         1 UNK         0.0000
     68 H30         4.1490   -7.0280  -15.4310 H         1 UNK         0.0000
     69 H31         6.3810  -12.1850  -13.7000 H         1 UNK         0.0000
     70 H32         8.0740  -12.0810  -14.2760 H         1 UNK         0.0000
@<TRIPOS>BOND
     1    1   35 1
     2    2   17 1
     3    2   24 1
     4    3   22 1
     5    3   23 1
     6    4   20 1
     7    4   25 1
     8    5   33 1
     9    5   38 1
    10    6   34 1
    11    6   38 1
    12    7   12 1
    13    7   13 1
    14    7   16 1
    15    8   14 1
    16    8   15 1
    17    8   21 1
    18    9   30 1
    19    9   31 1
    20    9   65 1
    21   10   28 ar
    22   10   32 ar
    23   11   30 ar
    24   11   32 ar
    25   12   14 1
    26   12   39 1
    27   12   40 1
    28   13   15 1
    29   13   41 1
    30   13   42 1
    31   14   43 1
    32   14   44 1
    33   15   45 1
    34   15   46 1
    35   16   20 1
    36   16   47 1
    37   16   48 1
    38   17   18 1
    39   17   19 1
    40   17   49 1
    41   18   22 1
    42   18   50 1
    43   18   51 1
    44   19   23 1
    45   19   52 1
    46   19   53 1
    47   20   54 1
    48   20   55 1
    49   21   56 1
    50   21   57 1
    51   21   58 1
    52   22   59 1
    53   22   60 1
    54   23   61 1
    55   23   62 1
    56   24   26 ar
    57   24   27 ar
    58   25   27 ar
    59   25   29 ar
    60   26   28 ar
    61   26   30 ar
    62   27   63 1
    63   28   29 ar
    64   29   64 1
    65   31   33 ar
    66   31   35 ar
    67   32   66 1
    68   33   34 ar
    69   34   36 ar
    70   35   37 ar
    71   36   37 ar
    72   36   67 1
    73   37   68 1
    74   38   69 1
    75   38   70 1
