@<TRIPOS>MOLECULE
10302451
   70    75     0     0     0
SMALL
NO_CHARGES

@<TRIPOS>ATOM
      1 Cl1        11.0750   -7.4880   -8.0870 Cl        1 UNK         0.0000
      2 O1          6.8150   -5.4080   -7.8290 O.3       1 UNK         0.0000
      3 O2          5.9430   -4.2830   -3.9390 O.3       1 UNK         0.0000
      4 O3          2.8900   -7.4040   -9.6160 O.3       1 UNK         0.0000
      5 O4          9.7300   -3.0610  -10.5110 O.3       1 UNK         0.0000
      6 O5         11.8660   -2.4120  -10.8990 O.3       1 UNK         0.0000
      7 N1          1.6630  -10.3040   -9.4660 N.3       1 UNK         0.0000
      8 N2          0.3550  -12.3710  -10.9230 N.3       1 UNK         0.0000
      9 N3          9.0060   -5.6090   -9.0950 N.pl3     1 UNK         0.0000
     10 N4          7.0130   -7.7640  -11.9710 N.ar      1 UNK         0.0000
     11 N5          8.9410   -6.8030  -11.1240 N.ar      1 UNK         0.0000
     12 C1          1.2860  -11.5620   -8.8080 C.3       1 UNK         0.0000
     13 C2          1.9630  -10.5250  -10.8880 C.3       1 UNK         0.0000
     14 C3          0.0550  -12.1490   -9.5010 C.3       1 UNK         0.0000
     15 C4          0.7310  -11.1120  -11.5810 C.3       1 UNK         0.0000
     16 C5          2.7980   -9.6700   -8.7820 C.3       1 UNK         0.0000
     17 C6          6.2070   -5.4230   -6.5360 C.3       1 UNK         0.0000
     18 C7          7.2880   -5.5900   -5.4630 C.3       1 UNK         0.0000
     19 C8          5.4700   -4.1010   -6.3020 C.3       1 UNK         0.0000
     20 C9          2.4720   -8.2010   -8.5060 C.3       1 UNK         0.0000
     21 C10        -0.7790  -13.0040  -11.6070 C.3       1 UNK         0.0000
     22 C11         6.6360   -5.5240   -4.0790 C.3       1 UNK         0.0000
     23 C12         4.8890   -4.0930   -4.8850 C.3       1 UNK         0.0000
     24 C13         6.2020   -6.1250   -8.8060 C.ar      1 UNK         0.0000
     25 C14         4.2180   -7.1410   -9.7200 C.ar      1 UNK         0.0000
     26 C15         6.9370   -6.5870   -9.9110 C.ar      1 UNK         0.0000
     27 C16         4.8550   -6.4040   -8.7210 C.ar      1 UNK         0.0000
     28 C17         6.2890   -7.3340  -10.9250 C.ar      1 UNK         0.0000
     29 C18         4.9220   -7.6090  -10.8130 C.ar      1 UNK         0.0000
     30 C19         8.3190   -6.3300  -10.0500 C.ar      1 UNK         0.0000
     31 C20        10.3240   -5.2020   -9.3370 C.ar      1 UNK         0.0000
     32 C21         8.2950   -7.4960  -12.0480 C.ar      1 UNK         0.0000
     33 C22        10.5730   -4.0080  -10.0060 C.ar      1 UNK         0.0000
     34 C23        11.8840   -3.6080  -10.2380 C.ar      1 UNK         0.0000
     35 C24        11.3850   -5.9950   -8.9140 C.ar      1 UNK         0.0000
     36 C25        12.9370   -4.4040   -9.8130 C.ar      1 UNK         0.0000
     37 C26        12.6860   -5.5930   -9.1530 C.ar      1 UNK         0.0000
     38 C27        10.5400   -1.8850  -10.7010 C.3       1 UNK         0.0000
     39 H1          1.0570  -11.3700   -7.7600 H         1 UNK         0.0000
     40 H2          2.1130  -12.2700   -8.8750 H         1 UNK         0.0000
     41 H3          2.7980  -11.2210  -10.9790 H         1 UNK         0.0000
     42 H4          2.2260   -9.5770  -11.3560 H         1 UNK         0.0000
     43 H5         -0.7800  -11.4530   -9.4100 H         1 UNK         0.0000
     44 H6         -0.2090  -13.0970   -9.0330 H         1 UNK         0.0000
     45 H7          0.9610  -11.3050  -12.6300 H         1 UNK         0.0000
     46 H8         -0.0960  -10.4050  -11.5140 H         1 UNK         0.0000
     47 H9          2.9860  -10.1840   -7.8390 H         1 UNK         0.0000
     48 H10         3.6840   -9.7340   -9.4130 H         1 UNK         0.0000
     49 H11         5.5000   -6.2510   -6.4730 H         1 UNK         0.0000
     50 H12         7.7800   -6.5540   -5.5890 H         1 UNK         0.0000
     51 H13         8.0220   -4.7900   -5.5580 H         1 UNK         0.0000
     52 H14         6.1680   -3.2710   -6.4140 H         1 UNK         0.0000
     53 H15         4.6630   -4.0000   -7.0270 H         1 UNK         0.0000
     54 H16         1.3990   -8.0880   -8.3620 H         1 UNK         0.0000
     55 H17         2.9960   -7.8760   -7.6070 H         1 UNK         0.0000
     56 H18        -0.8710  -14.0390  -11.2790 H         1 UNK         0.0000
     57 H19        -1.6960  -12.4660  -11.3670 H         1 UNK         0.0000
     58 H20        -0.6150  -12.9780  -12.6850 H         1 UNK         0.0000
     59 H21         5.9320   -6.3500   -3.9690 H         1 UNK         0.0000
     60 H22         7.4060   -5.6000   -3.3110 H         1 UNK         0.0000
     61 H23         4.1620   -4.8990   -4.7860 H         1 UNK         0.0000
     62 H24         4.4000   -3.1370   -4.6980 H         1 UNK         0.0000
     63 H25         4.2880   -6.0500   -7.8730 H         1 UNK         0.0000
     64 H26         4.4190   -8.1810  -11.5770 H         1 UNK         0.0000
     65 H27         8.5750   -5.3850   -8.2550 H         1 UNK         0.0000
     66 H28         8.8480   -7.8570  -12.9030 H         1 UNK         0.0000
     67 H29        13.9550   -4.0960   -9.9980 H         1 UNK         0.0000
     68 H30        13.5090   -6.2100   -8.8240 H         1 UNK         0.0000
     69 H31        10.5080   -1.2510   -9.8150 H         1 UNK         0.0000
     70 H32        10.2130   -1.3300  -11.5800 H         1 UNK         0.0000
@<TRIPOS>BOND
     1    1   35 1
     2    2   17 1
     3    2   24 1
     4    3   22 1
     5    3   23 1
     6    4   20 1
     7    4   25 1
     8    5   33 1
     9    5   38 1
    10    6   34 1
    11    6   38 1
    12    7   12 1
    13    7   13 1
    14    7   16 1
    15    8   14 1
    16    8   15 1
    17    8   21 1
    18    9   30 1
    19    9   31 1
    20    9   65 1
    21   10   28 ar
    22   10   32 ar
    23   11   30 ar
    24   11   32 ar
    25   12   14 1
    26   12   39 1
    27   12   40 1
    28   13   15 1
    29   13   41 1
    30   13   42 1
    31   14   43 1
    32   14   44 1
    33   15   45 1
    34   15   46 1
    35   16   20 1
    36   16   47 1
    37   16   48 1
    38   17   18 1
    39   17   19 1
    40   17   49 1
    41   18   22 1
    42   18   50 1
    43   18   51 1
    44   19   23 1
    45   19   52 1
    46   19   53 1
    47   20   54 1
    48   20   55 1
    49   21   56 1
    50   21   57 1
    51   21   58 1
    52   22   59 1
    53   22   60 1
    54   23   61 1
    55   23   62 1
    56   24   26 ar
    57   24   27 ar
    58   25   27 ar
    59   25   29 ar
    60   26   28 ar
    61   26   30 ar
    62   27   63 1
    63   28   29 ar
    64   29   64 1
    65   31   33 ar
    66   31   35 ar
    67   32   66 1
    68   33   34 ar
    69   34   36 ar
    70   35   37 ar
    71   36   37 ar
    72   36   67 1
    73   37   68 1
    74   38   69 1
    75   38   70 1
