@<TRIPOS>MOLECULE
10302451
   70    75     0     0     0
SMALL
NO_CHARGES

@<TRIPOS>ATOM
      1 Cl1         7.6640   -9.2190  -14.4120 Cl        1 UNK         0.0000
      2 O1          9.1300   -6.4320   -9.9860 O.3       1 UNK         0.0000
      3 O2         12.9760   -6.3400   -8.4510 O.3       1 UNK         0.0000
      4 O3          6.2400   -4.7660   -6.6010 O.3       1 UNK         0.0000
      5 O4          9.3180   -4.6570  -12.4770 O.3       1 UNK         0.0000
      6 O5          9.9170   -3.8140  -14.4920 O.3       1 UNK         0.0000
      7 N1          6.0530   -4.2140   -3.7920 N.3       1 UNK         0.0000
      8 N2          6.4570   -2.3440   -1.6830 N.3       1 UNK         0.0000
      9 N3          8.1360   -7.3950  -12.1140 N.pl3     1 UNK         0.0000
     10 N4          4.4030   -6.5770  -10.6030 N.ar      1 UNK         0.0000
     11 N5          5.7850   -7.3960  -12.2690 N.ar      1 UNK         0.0000
     12 C1          6.9920   -4.5060   -2.6990 C.3       1 UNK         0.0000
     13 C2          4.9510   -3.3630   -3.3220 C.3       1 UNK         0.0000
     14 C3          7.5600   -3.1940   -2.1530 C.3       1 UNK         0.0000
     15 C4          5.5190   -2.0510   -2.7760 C.3       1 UNK         0.0000
     16 C5          5.5420   -5.4530   -4.3920 C.3       1 UNK         0.0000
     17 C6         10.2120   -6.1260   -9.1050 C.3       1 UNK         0.0000
     18 C7         10.8200   -7.4250   -8.5690 C.3       1 UNK         0.0000
     19 C8         11.2880   -5.3460   -9.8670 C.3       1 UNK         0.0000
     20 C9          5.1080   -5.1800   -5.8340 C.3       1 UNK         0.0000
     21 C10         6.9680   -1.1050   -1.0820 C.3       1 UNK         0.0000
     22 C11        12.0280   -7.0890   -7.6900 C.3       1 UNK         0.0000
     23 C12        12.4780   -5.0920   -8.9370 C.3       1 UNK         0.0000
     24 C13         7.8750   -6.1820   -9.5310 C.ar      1 UNK         0.0000
     25 C14         6.4020   -5.3400   -7.8220 C.ar      1 UNK         0.0000
     26 C15         6.7590   -6.5140  -10.3170 C.ar      1 UNK         0.0000
     27 C16         7.6870   -5.5990   -8.2970 C.ar      1 UNK         0.0000
     28 C17         5.4540   -6.2490   -9.8340 C.ar      1 UNK         0.0000
     29 C18         5.2900   -5.6630   -8.5740 C.ar      1 UNK         0.0000
     30 C19         6.8910   -7.1120  -11.5900 C.ar      1 UNK         0.0000
     31 C20         8.5090   -6.8680  -13.3570 C.ar      1 UNK         0.0000
     32 C21         4.5860   -7.1310  -11.7790 C.ar      1 UNK         0.0000
     33 C22         9.0460   -5.5870  -13.4380 C.ar      1 UNK         0.0000
     34 C23         9.4180   -5.0720  -14.6750 C.ar      1 UNK         0.0000
     35 C24         8.3390   -7.6230  -14.5110 C.ar      1 UNK         0.0000
     36 C25         9.2460   -5.8330  -15.8220 C.ar      1 UNK         0.0000
     37 C26         8.7080   -7.1030  -15.7380 C.ar      1 UNK         0.0000
     38 C27        10.2290   -3.7250  -13.0880 C.3       1 UNK         0.0000
     39 H1          7.8050   -5.1270   -3.0750 H         1 UNK         0.0000
     40 H2          6.4690   -5.0350   -1.9020 H         1 UNK         0.0000
     41 H3          4.4040   -3.8800   -2.5320 H         1 UNK         0.0000
     42 H4          4.2760   -3.1500   -4.1510 H         1 UNK         0.0000
     43 H5          8.1060   -2.6780   -2.9440 H         1 UNK         0.0000
     44 H6          8.2340   -3.4070   -1.3240 H         1 UNK         0.0000
     45 H7          4.7050   -1.4310   -2.4000 H         1 UNK         0.0000
     46 H8          6.0420   -1.5220   -3.5730 H         1 UNK         0.0000
     47 H9          6.3270   -6.2100   -4.3870 H         1 UNK         0.0000
     48 H10         4.6880   -5.8100   -3.8180 H         1 UNK         0.0000
     49 H11         9.8460   -5.5230   -8.2720 H         1 UNK         0.0000
     50 H12        10.0760   -7.9590   -7.9780 H         1 UNK         0.0000
     51 H13        11.1400   -8.0490   -9.4040 H         1 UNK         0.0000
     52 H14        11.6170   -5.9290  -10.7280 H         1 UNK         0.0000
     53 H15        10.8790   -4.3950  -10.2040 H         1 UNK         0.0000
     54 H16         4.6900   -6.0880   -6.2660 H         1 UNK         0.0000
     55 H17         4.3540   -4.3930   -5.8440 H         1 UNK         0.0000
     56 H18         6.2340   -0.7130   -0.3790 H         1 UNK         0.0000
     57 H19         7.8990   -1.3130   -0.5560 H         1 UNK         0.0000
     58 H20         7.1500   -0.3690   -1.8660 H         1 UNK         0.0000
     59 H21        11.7010   -6.5000   -6.8320 H         1 UNK         0.0000
     60 H22        12.4910   -8.0120   -7.3400 H         1 UNK         0.0000
     61 H23        12.1570   -4.4760   -8.0980 H         1 UNK         0.0000
     62 H24        13.2650   -4.5750   -9.4870 H         1 UNK         0.0000
     63 H25         8.5440   -5.3420   -7.6910 H         1 UNK         0.0000
     64 H26         4.3000   -5.4610   -8.1940 H         1 UNK         0.0000
     65 H27         8.7520   -7.9600  -11.6220 H         1 UNK         0.0000
     66 H28         3.7190   -7.3810  -12.3720 H         1 UNK         0.0000
     67 H29         9.5310   -5.4310  -16.7820 H         1 UNK         0.0000
     68 H30         8.5750   -7.6920  -16.6340 H         1 UNK         0.0000
     69 H31        11.2610   -4.0230  -12.9060 H         1 UNK         0.0000
     70 H32        10.0520   -2.7140  -12.7200 H         1 UNK         0.0000
@<TRIPOS>BOND
     1    1   35 1
     2    2   17 1
     3    2   24 1
     4    3   22 1
     5    3   23 1
     6    4   20 1
     7    4   25 1
     8    5   33 1
     9    5   38 1
    10    6   34 1
    11    6   38 1
    12    7   12 1
    13    7   13 1
    14    7   16 1
    15    8   14 1
    16    8   15 1
    17    8   21 1
    18    9   30 1
    19    9   31 1
    20    9   65 1
    21   10   28 ar
    22   10   32 ar
    23   11   30 ar
    24   11   32 ar
    25   12   14 1
    26   12   39 1
    27   12   40 1
    28   13   15 1
    29   13   41 1
    30   13   42 1
    31   14   43 1
    32   14   44 1
    33   15   45 1
    34   15   46 1
    35   16   20 1
    36   16   47 1
    37   16   48 1
    38   17   18 1
    39   17   19 1
    40   17   49 1
    41   18   22 1
    42   18   50 1
    43   18   51 1
    44   19   23 1
    45   19   52 1
    46   19   53 1
    47   20   54 1
    48   20   55 1
    49   21   56 1
    50   21   57 1
    51   21   58 1
    52   22   59 1
    53   22   60 1
    54   23   61 1
    55   23   62 1
    56   24   26 ar
    57   24   27 ar
    58   25   27 ar
    59   25   29 ar
    60   26   28 ar
    61   26   30 ar
    62   27   63 1
    63   28   29 ar
    64   29   64 1
    65   31   33 ar
    66   31   35 ar
    67   32   66 1
    68   33   34 ar
    69   34   36 ar
    70   35   37 ar
    71   36   37 ar
    72   36   67 1
    73   37   68 1
    74   38   69 1
    75   38   70 1
