@<TRIPOS>MOLECULE
10302451
   70    75     0     0     0
SMALL
NO_CHARGES

@<TRIPOS>ATOM
      1 Cl1        12.1880   -5.1110   -9.4400 Cl        1 UNK         0.0000
      2 O1          7.7700   -4.3680   -9.9650 O.3       1 UNK         0.0000
      3 O2          5.0280   -4.7400   -6.8830 O.3       1 UNK         0.0000
      4 O3          5.7790   -6.2710  -13.8380 O.3       1 UNK         0.0000
      5 O4         10.2860   -0.2520   -9.7020 O.3       1 UNK         0.0000
      6 O5         12.1250    0.7100   -8.7940 O.3       1 UNK         0.0000
      7 N1          3.6620   -8.1470  -11.4880 N.3       1 UNK         0.0000
      8 N2          2.9520   -8.9150   -8.8400 N.3       1 UNK         0.0000
      9 N3         10.0200   -3.2090  -10.1590 N.pl3     1 UNK         0.0000
     10 N4          9.9990   -4.0910  -14.1730 N.ar      1 UNK         0.0000
     11 N5         10.9930   -3.1550  -12.3030 N.ar      1 UNK         0.0000
     12 C1          4.1100   -7.3580  -10.3320 C.3       1 UNK         0.0000
     13 C2          3.5190   -9.5660  -11.1310 C.3       1 UNK         0.0000
     14 C3          3.0940   -7.4970   -9.1970 C.3       1 UNK         0.0000
     15 C4          2.5030   -9.7050   -9.9960 C.3       1 UNK         0.0000
     16 C5          4.5750   -7.9800  -12.6270 C.3       1 UNK         0.0000
     17 C6          6.6060   -4.7920   -9.2540 C.3       1 UNK         0.0000
     18 C7          7.0250   -5.5390   -7.9840 C.3       1 UNK         0.0000
     19 C8          5.7710   -3.5690   -8.8630 C.3       1 UNK         0.0000
     20 C9          4.6260   -6.5050  -13.0270 C.3       1 UNK         0.0000
     21 C10         2.0390   -9.0830   -7.7020 C.3       1 UNK         0.0000
     22 C11         5.7730   -5.9190   -7.1880 C.3       1 UNK         0.0000
     23 C12         4.5680   -4.0260   -8.0330 C.3       1 UNK         0.0000
     24 C13         7.8100   -4.6350  -11.2960 C.ar      1 UNK         0.0000
     25 C14         6.8100   -5.5970  -13.2650 C.ar      1 UNK         0.0000
     26 C15         8.9070   -4.2170  -12.0680 C.ar      1 UNK         0.0000
     27 C16         6.7760   -5.3180  -11.8990 C.ar      1 UNK         0.0000
     28 C17         8.9400   -4.5000  -13.4560 C.ar      1 UNK         0.0000
     29 C18         7.8800   -5.2000  -14.0430 C.ar      1 UNK         0.0000
     30 C19         9.9950   -3.5140  -11.5040 C.ar      1 UNK         0.0000
     31 C20        11.1540   -2.6080   -9.5980 C.ar      1 UNK         0.0000
     32 C21        10.9820   -3.4410  -13.5950 C.ar      1 UNK         0.0000
     33 C22        11.1990   -1.2290   -9.4250 C.ar      1 UNK         0.0000
     34 C23        12.3250   -0.6400   -8.8630 C.ar      1 UNK         0.0000
     35 C24        12.2390   -3.3900   -9.2180 C.ar      1 UNK         0.0000
     36 C25        13.4030   -1.4270   -8.4860 C.ar      1 UNK         0.0000
     37 C26        13.3580   -2.7970   -8.6640 C.ar      1 UNK         0.0000
     38 C27        10.7040    0.8950   -8.9380 C.3       1 UNK         0.0000
     39 H1          4.1950   -6.3100  -10.6190 H         1 UNK         0.0000
     40 H2          5.0810   -7.7240   -9.9980 H         1 UNK         0.0000
     41 H3          4.4840   -9.9570  -10.8060 H         1 UNK         0.0000
     42 H4          3.1740  -10.1270  -11.9990 H         1 UNK         0.0000
     43 H5          2.1290   -7.1060   -9.5240 H         1 UNK         0.0000
     44 H6          3.4390   -6.9360   -8.3290 H         1 UNK         0.0000
     45 H7          2.4180  -10.7530   -9.7090 H         1 UNK         0.0000
     46 H8          1.5320   -9.3390  -10.3300 H         1 UNK         0.0000
     47 H9          5.5730   -8.3140  -12.3430 H         1 UNK         0.0000
     48 H10         4.2180   -8.5730  -13.4680 H         1 UNK         0.0000
     49 H11         6.0110   -5.4530   -9.8860 H         1 UNK         0.0000
     50 H12         7.5720   -6.4410   -8.2560 H         1 UNK         0.0000
     51 H13         7.6610   -4.8950   -7.3760 H         1 UNK         0.0000
     52 H14         6.3820   -2.8860   -8.2720 H         1 UNK         0.0000
     53 H15         5.4220   -3.0630   -9.7620 H         1 UNK         0.0000
     54 H16         3.7290   -6.2490  -13.5890 H         1 UNK         0.0000
     55 H17         4.6810   -5.8870  -12.1310 H         1 UNK         0.0000
     56 H18         1.1610   -9.6430   -8.0200 H         1 UNK         0.0000
     57 H19         2.5480   -9.6280   -6.9060 H         1 UNK         0.0000
     58 H20         1.7330   -8.1040   -7.3330 H         1 UNK         0.0000
     59 H21         5.1570   -6.5970   -7.7820 H         1 UNK         0.0000
     60 H22         6.0670   -6.4140   -6.2620 H         1 UNK         0.0000
     61 H23         3.9370   -4.6780   -8.6370 H         1 UNK         0.0000
     62 H24         3.9940   -3.1550   -7.7150 H         1 UNK         0.0000
     63 H25         5.9320   -5.6400  -11.3080 H         1 UNK         0.0000
     64 H26         7.8960   -5.4250  -15.0980 H         1 UNK         0.0000
     65 H27         9.2530   -3.4130   -9.6010 H         1 UNK         0.0000
     66 H28        11.8180   -3.1250  -14.2010 H         1 UNK         0.0000
     67 H29        14.2800   -0.9690   -8.0540 H         1 UNK         0.0000
     68 H30        14.1990   -3.4060   -8.3690 H         1 UNK         0.0000
     69 H31        10.2190    0.9010   -7.9610 H         1 UNK         0.0000
     70 H32        10.4900    1.8170   -9.4770 H         1 UNK         0.0000
@<TRIPOS>BOND
     1    1   35 1
     2    2   17 1
     3    2   24 1
     4    3   22 1
     5    3   23 1
     6    4   20 1
     7    4   25 1
     8    5   33 1
     9    5   38 1
    10    6   34 1
    11    6   38 1
    12    7   12 1
    13    7   13 1
    14    7   16 1
    15    8   14 1
    16    8   15 1
    17    8   21 1
    18    9   30 1
    19    9   31 1
    20    9   65 1
    21   10   28 ar
    22   10   32 ar
    23   11   30 ar
    24   11   32 ar
    25   12   14 1
    26   12   39 1
    27   12   40 1
    28   13   15 1
    29   13   41 1
    30   13   42 1
    31   14   43 1
    32   14   44 1
    33   15   45 1
    34   15   46 1
    35   16   20 1
    36   16   47 1
    37   16   48 1
    38   17   18 1
    39   17   19 1
    40   17   49 1
    41   18   22 1
    42   18   50 1
    43   18   51 1
    44   19   23 1
    45   19   52 1
    46   19   53 1
    47   20   54 1
    48   20   55 1
    49   21   56 1
    50   21   57 1
    51   21   58 1
    52   22   59 1
    53   22   60 1
    54   23   61 1
    55   23   62 1
    56   24   26 ar
    57   24   27 ar
    58   25   27 ar
    59   25   29 ar
    60   26   28 ar
    61   26   30 ar
    62   27   63 1
    63   28   29 ar
    64   29   64 1
    65   31   33 ar
    66   31   35 ar
    67   32   66 1
    68   33   34 ar
    69   34   36 ar
    70   35   37 ar
    71   36   37 ar
    72   36   67 1
    73   37   68 1
    74   38   69 1
    75   38   70 1
