@<TRIPOS>MOLECULE
10302451
   70    75     0     0     0
SMALL
NO_CHARGES

@<TRIPOS>ATOM
      1 Cl1         8.1300   -4.0160  -12.4990 Cl        1 UNK         0.0000
      2 O1          9.0510   -6.0200   -9.7790 O.3       1 UNK         0.0000
      3 O2         13.1510   -5.6620   -9.3050 O.3       1 UNK         0.0000
      4 O3          7.1030   -4.8980   -5.5920 O.3       1 UNK         0.0000
      5 O4          6.7220   -8.9130  -13.6550 O.3       1 UNK         0.0000
      6 O5          6.4680   -8.5080  -15.8690 O.3       1 UNK         0.0000
      7 N1          5.8480   -3.2820   -3.4730 N.3       1 UNK         0.0000
      8 N2          6.5090   -1.8410   -1.1070 N.3       1 UNK         0.0000
      9 N3          7.5630   -6.8150  -11.6750 N.pl3     1 UNK         0.0000
     10 N4          4.3360   -6.3920   -9.1670 N.ar      1 UNK         0.0000
     11 N5          5.2560   -6.9460  -11.2170 N.ar      1 UNK         0.0000
     12 C1          6.7520   -3.8610   -2.4700 C.3       1 UNK         0.0000
     13 C2          4.8680   -2.3860   -2.8410 C.3       1 UNK         0.0000
     14 C3          7.4890   -2.7360   -1.7400 C.3       1 UNK         0.0000
     15 C4          5.6050   -1.2610   -2.1110 C.3       1 UNK         0.0000
     16 C5          5.1760   -4.3340   -4.2470 C.3       1 UNK         0.0000
     17 C6         10.3030   -5.6310   -9.2120 C.3       1 UNK         0.0000
     18 C7         11.1130   -6.8800   -8.8530 C.3       1 UNK         0.0000
     19 C8         11.0900   -4.8000  -10.2310 C.3       1 UNK         0.0000
     20 C9          6.1900   -5.4170   -4.6230 C.3       1 UNK         0.0000
     21 C10         7.1800   -0.7890   -0.3330 C.3       1 UNK         0.0000
     22 C11        12.4850   -6.4550   -8.3210 C.3       1 UNK         0.0000
     23 C12        12.4630   -4.4560   -9.6450 C.3       1 UNK         0.0000
     24 C13         7.9530   -5.8960   -8.9890 C.ar      1 UNK         0.0000
     25 C14         6.9550   -5.3310   -6.8710 C.ar      1 UNK         0.0000
     26 C15         6.6800   -6.2140   -9.4940 C.ar      1 UNK         0.0000
     27 C16         8.0780   -5.4590   -7.6890 C.ar      1 UNK         0.0000
     28 C17         5.5410   -6.0820   -8.6620 C.ar      1 UNK         0.0000
     29 C18         5.6960   -5.6420   -7.3440 C.ar      1 UNK         0.0000
     30 C19         6.4920   -6.6660  -10.8190 C.ar      1 UNK         0.0000
     31 C20         7.4040   -6.5710  -13.0450 C.ar      1 UNK         0.0000
     32 C21         4.2200   -6.8080  -10.4060 C.ar      1 UNK         0.0000
     33 C22         7.0150   -7.6010  -13.8960 C.ar      1 UNK         0.0000
     34 C23         6.8540   -7.3510  -15.2540 C.ar      1 UNK         0.0000
     35 C24         7.6390   -5.3010  -13.5570 C.ar      1 UNK         0.0000
     36 C25         7.0910   -6.0800  -15.7570 C.ar      1 UNK         0.0000
     37 C26         7.4810   -5.0600  -14.9100 C.ar      1 UNK         0.0000
     38 C27         5.9940   -9.3650  -14.8120 C.3       1 UNK         0.0000
     39 H1          7.4760   -4.5090   -2.9640 H         1 UNK         0.0000
     40 H2          6.1740   -4.4420   -1.7520 H         1 UNK         0.0000
     41 H3          4.2680   -2.9520   -2.1270 H         1 UNK         0.0000
     42 H4          4.2180   -1.9600   -3.6050 H         1 UNK         0.0000
     43 H5          8.0890   -2.1710   -2.4550 H         1 UNK         0.0000
     44 H6          8.1380   -3.1620   -0.9760 H         1 UNK         0.0000
     45 H7          4.8810   -0.6130   -1.6170 H         1 UNK         0.0000
     46 H8          6.1830   -0.6800   -2.8290 H         1 UNK         0.0000
     47 H9          4.3800   -4.7750   -3.6460 H         1 UNK         0.0000
     48 H10         4.7520   -3.9040   -5.1530 H         1 UNK         0.0000
     49 H11        10.1300   -5.0380   -8.3130 H         1 UNK         0.0000
     50 H12        10.5860   -7.4490   -8.0870 H         1 UNK         0.0000
     51 H13        11.2430   -7.4980   -9.7420 H         1 UNK         0.0000
     52 H14        11.2200   -5.3770  -11.1470 H         1 UNK         0.0000
     53 H15        10.5470   -3.8820  -10.4500 H         1 UNK         0.0000
     54 H16         6.7390   -5.7240   -3.7340 H         1 UNK         0.0000
     55 H17         5.6650   -6.2760   -5.0400 H         1 UNK         0.0000
     56 H18         6.7770   -0.7700    0.6790 H         1 UNK         0.0000
     57 H19         8.2500   -0.9930   -0.2940 H         1 UNK         0.0000
     58 H20         7.0120    0.1770   -0.8100 H         1 UNK         0.0000
     59 H21        12.3560   -5.8720   -7.4090 H         1 UNK         0.0000
     60 H22        13.0810   -7.3410   -8.1040 H         1 UNK         0.0000
     61 H23        12.3330   -3.8460   -8.7510 H         1 UNK         0.0000
     62 H24        13.0440   -3.9010  -10.3830 H         1 UNK         0.0000
     63 H25         9.0550   -5.2140   -7.2990 H         1 UNK         0.0000
     64 H26         4.8350   -5.5420   -6.7000 H         1 UNK         0.0000
     65 H27         8.4260   -7.0900  -11.3290 H         1 UNK         0.0000
     66 H28         3.2360   -7.0480  -10.7810 H         1 UNK         0.0000
     67 H29         6.9700   -5.8870  -16.8120 H         1 UNK         0.0000
     68 H30         7.6640   -4.0720  -15.3060 H         1 UNK         0.0000
     69 H31         4.9220   -9.2340  -14.6650 H         1 UNK         0.0000
     70 H32         6.2260  -10.4060  -15.0300 H         1 UNK         0.0000
@<TRIPOS>BOND
     1    1   35 1
     2    2   17 1
     3    2   24 1
     4    3   22 1
     5    3   23 1
     6    4   20 1
     7    4   25 1
     8    5   33 1
     9    5   38 1
    10    6   34 1
    11    6   38 1
    12    7   12 1
    13    7   13 1
    14    7   16 1
    15    8   14 1
    16    8   15 1
    17    8   21 1
    18    9   30 1
    19    9   31 1
    20    9   65 1
    21   10   28 ar
    22   10   32 ar
    23   11   30 ar
    24   11   32 ar
    25   12   14 1
    26   12   39 1
    27   12   40 1
    28   13   15 1
    29   13   41 1
    30   13   42 1
    31   14   43 1
    32   14   44 1
    33   15   45 1
    34   15   46 1
    35   16   20 1
    36   16   47 1
    37   16   48 1
    38   17   18 1
    39   17   19 1
    40   17   49 1
    41   18   22 1
    42   18   50 1
    43   18   51 1
    44   19   23 1
    45   19   52 1
    46   19   53 1
    47   20   54 1
    48   20   55 1
    49   21   56 1
    50   21   57 1
    51   21   58 1
    52   22   59 1
    53   22   60 1
    54   23   61 1
    55   23   62 1
    56   24   26 ar
    57   24   27 ar
    58   25   27 ar
    59   25   29 ar
    60   26   28 ar
    61   26   30 ar
    62   27   63 1
    63   28   29 ar
    64   29   64 1
    65   31   33 ar
    66   31   35 ar
    67   32   66 1
    68   33   34 ar
    69   34   36 ar
    70   35   37 ar
    71   36   37 ar
    72   36   67 1
    73   37   68 1
    74   38   69 1
    75   38   70 1
