@<TRIPOS>MOLECULE
25174101
   55    58     0     0     0
SMALL
NO_CHARGES

@<TRIPOS>ATOM
      1 O1          6.3690   -5.4970   -4.9800 O.2       1 UNK         0.0000
      2 N1          4.5200   -6.9470   -7.4020 N.pl3     1 UNK         0.0000
      3 N2          5.1070   -7.5680   -8.5110 N.2       1 UNK         0.0000
      4 N3          4.7520   -4.7570   -6.3100 N.am      1 UNK         0.0000
      5 N4          5.1610   -3.7960   -4.2220 N.am      1 UNK         0.0000
      6 N5          0.5980   -9.6940   -6.7870 N.pl3     1 UNK         0.0000
      7 C1          6.8180   -7.0070  -10.2560 C.3       1 UNK         0.0000
      8 C2          5.9680   -6.7360   -9.0430 C.2       1 UNK         0.0000
      9 C3          6.6260   -8.4590  -10.6990 C.3       1 UNK         0.0000
     10 C4          6.4040   -6.0690  -11.3900 C.3       1 UNK         0.0000
     11 C5          8.2900   -6.7700   -9.9110 C.3       1 UNK         0.0000
     12 C6          5.9580   -5.5530   -8.2980 C.2       1 UNK         0.0000
     13 C7          5.0620   -5.7040   -7.2850 C.2       1 UNK         0.0000
     14 C8          3.5470   -7.5060   -6.5620 C.ar      1 UNK         0.0000
     15 C9          2.5540   -8.3170   -7.0920 C.ar      1 UNK         0.0000
     16 C10         3.5720   -7.2430   -5.1980 C.ar      1 UNK         0.0000
     17 C11         5.4600   -4.7120   -5.1640 C.2       1 UNK         0.0000
     18 C12         5.9650   -3.6710   -3.0880 C.ar      1 UNK         0.0000
     19 C13         5.9510   -2.4810   -2.3310 C.ar      1 UNK         0.0000
     20 C14         1.5960   -8.8720   -6.2570 C.ar      1 UNK         0.0000
     21 C15         6.7760   -2.3770   -1.1840 C.ar      1 UNK         0.0000
     22 C16         2.6130   -7.7930   -4.3690 C.ar      1 UNK         0.0000
     23 C17         1.6260   -8.6060   -4.8920 C.ar      1 UNK         0.0000
     24 C18         6.7820   -4.7110   -2.6980 C.ar      1 UNK         0.0000
     25 C19         5.1340   -1.3980   -2.6930 C.ar      1 UNK         0.0000
     26 C20         7.5950   -3.4600   -0.8210 C.ar      1 UNK         0.0000
     27 C21         7.5890   -4.5970   -1.5690 C.ar      1 UNK         0.0000
     28 C22         6.7610   -1.1910   -0.4310 C.ar      1 UNK         0.0000
     29 C23         5.1440   -0.2640   -1.9390 C.ar      1 UNK         0.0000
     30 C24         5.9560   -0.1610   -0.8120 C.ar      1 UNK         0.0000
     31 H1          7.5740   -8.8560  -11.0620 H         1 UNK         0.0000
     32 H2          6.2830   -9.0550   -9.8520 H         1 UNK         0.0000
     33 H3          5.8850   -8.5020  -11.4960 H         1 UNK         0.0000
     34 H4          5.8710   -5.2120  -10.9770 H         1 UNK         0.0000
     35 H5          7.2920   -5.7240  -11.9200 H         1 UNK         0.0000
     36 H6          5.7520   -6.6010  -12.0830 H         1 UNK         0.0000
     37 H7          8.8010   -7.7290   -9.8170 H         1 UNK         0.0000
     38 H8          8.7600   -6.1850  -10.7020 H         1 UNK         0.0000
     39 H9          8.3600   -6.2290   -8.9680 H         1 UNK         0.0000
     40 H10         6.5580   -4.6760   -8.4910 H         1 UNK         0.0000
     41 H11         4.0260   -4.1290   -6.4570 H         1 UNK         0.0000
     42 H12         2.5310   -8.5190   -8.1530 H         1 UNK         0.0000
     43 H13         4.3410   -6.6070   -4.7860 H         1 UNK         0.0000
     44 H14         4.3860   -3.2230   -4.3320 H         1 UNK         0.0000
     45 H15         2.6340   -7.5870   -3.3090 H         1 UNK         0.0000
     46 H16         0.8790   -9.0340   -4.2420 H         1 UNK         0.0000
     47 H17         6.7960   -5.6240   -3.2750 H         1 UNK         0.0000
     48 H18         4.5000   -1.4650   -3.5650 H         1 UNK         0.0000
     49 H19         8.2300   -3.3880    0.0500 H         1 UNK         0.0000
     50 H20         8.2210   -5.4240   -1.2830 H         1 UNK         0.0000
     51 H21         7.3840   -1.0960    0.4460 H         1 UNK         0.0000
     52 H22         4.5150    0.5670   -2.2200 H         1 UNK         0.0000
     53 H23         5.9460    0.7500   -0.2310 H         1 UNK         0.0000
     54 H24        -0.0140  -10.1570   -6.1930 H         1 UNK         0.0000
     55 H25         0.5160   -9.8000   -7.7470 H         1 UNK         0.0000
@<TRIPOS>BOND
     1    1   17 2
     2    2    3 1
     3    2   13 1
     4    2   14 1
     5    3    8 2
     6    4   13 1
     7    4   17 am
     8    4   41 1
     9    5   17 am
    10    5   18 1
    11    5   44 1
    12    6   20 1
    13    6   54 1
    14    6   55 1
    15    7    8 1
    16    7    9 1
    17    7   10 1
    18    7   11 1
    19    8   12 1
    20    9   31 1
    21    9   32 1
    22    9   33 1
    23   10   34 1
    24   10   35 1
    25   10   36 1
    26   11   37 1
    27   11   38 1
    28   11   39 1
    29   12   13 2
    30   12   40 1
    31   14   15 ar
    32   14   16 ar
    33   15   20 ar
    34   15   42 1
    35   16   22 ar
    36   16   43 1
    37   18   19 ar
    38   18   24 ar
    39   19   21 ar
    40   19   25 ar
    41   20   23 ar
    42   21   26 ar
    43   21   28 ar
    44   22   23 ar
    45   22   45 1
    46   23   46 1
    47   24   27 ar
    48   24   47 1
    49   25   29 ar
    50   25   48 1
    51   26   27 ar
    52   26   49 1
    53   27   50 1
    54   28   30 ar
    55   28   51 1
    56   29   30 ar
    57   29   52 1
    58   30   53 1
