@<TRIPOS>MOLECULE
25174101
   55    58     0     0     0
SMALL
NO_CHARGES

@<TRIPOS>ATOM
      1 O1         -5.6450    0.4130    2.3850 O.2       1 UNK         0.0000
      2 N1         -8.5050   -0.7180    1.4130 N.pl3     1 UNK         0.0000
      3 N2         -8.7520   -1.5080    0.2830 N.2       1 UNK         0.0000
      4 N3         -7.0860   -0.9330    3.4080 N.am      1 UNK         0.0000
      5 N4         -5.5920    0.4040    4.6050 N.am      1 UNK         0.0000
      6 N5         -9.8740    3.6810   -0.0310 N.pl3     1 UNK         0.0000
      7 C1         -7.9950   -3.7160   -0.6330 C.3       1 UNK         0.0000
      8 C2         -8.0300   -2.5960    0.3740 C.2       1 UNK         0.0000
      9 C3         -9.3630   -3.8380   -1.3070 C.3       1 UNK         0.0000
     10 C4         -6.9300   -3.4200   -1.6900 C.3       1 UNK         0.0000
     11 C5         -7.6580   -5.0300    0.0760 C.3       1 UNK         0.0000
     12 C6         -7.2910   -2.5390    1.5590 C.2       1 UNK         0.0000
     13 C7         -7.6020   -1.3750    2.1900 C.2       1 UNK         0.0000
     14 C8         -9.0850    0.5270    1.6920 C.ar      1 UNK         0.0000
     15 C9         -9.1870    1.4860    0.6940 C.ar      1 UNK         0.0000
     16 C10        -9.5530    0.8050    2.9700 C.ar      1 UNK         0.0000
     17 C11        -6.0910   -0.0230    3.4290 C.2       1 UNK         0.0000
     18 C12        -4.6460    1.4300    4.6310 C.ar      1 UNK         0.0000
     19 C13        -5.0550    2.7740    4.7640 C.ar      1 UNK         0.0000
     20 C14        -9.7650    2.7150    0.9730 C.ar      1 UNK         0.0000
     21 C15        -4.0760    3.7980    4.7880 C.ar      1 UNK         0.0000
     22 C16       -10.1240    2.0330    3.2460 C.ar      1 UNK         0.0000
     23 C17       -10.2320    2.9870    2.2540 C.ar      1 UNK         0.0000
     24 C18        -3.3030    1.1380    4.5270 C.ar      1 UNK         0.0000
     25 C19        -6.4110    3.1140    4.8740 C.ar      1 UNK         0.0000
     26 C20        -2.7170    3.4590    4.6780 C.ar      1 UNK         0.0000
     27 C21        -2.3510    2.1540    4.5510 C.ar      1 UNK         0.0000
     28 C22        -4.4840    5.1360    4.9210 C.ar      1 UNK         0.0000
     29 C23        -6.7710    4.4220    5.0010 C.ar      1 UNK         0.0000
     30 C24        -5.8100    5.4300    5.0240 C.ar      1 UNK         0.0000
     31 H1        -10.1150   -3.3400   -0.6940 H         1 UNK         0.0000
     32 H2         -9.3280   -3.3670   -2.2900 H         1 UNK         0.0000
     33 H3         -9.6230   -4.8900   -1.4170 H         1 UNK         0.0000
     34 H4         -5.9630   -3.7860   -1.3440 H         1 UNK         0.0000
     35 H5         -7.1950   -3.9180   -2.6230 H         1 UNK         0.0000
     36 H6         -6.8730   -2.3440   -1.8570 H         1 UNK         0.0000
     37 H7         -8.1010   -5.8620   -0.4710 H         1 UNK         0.0000
     38 H8         -6.5750   -5.1560    0.1130 H         1 UNK         0.0000
     39 H9         -8.0560   -5.0080    1.0900 H         1 UNK         0.0000
     40 H10        -6.5970   -3.2890    1.9120 H         1 UNK         0.0000
     41 H11        -7.4420   -1.2800    4.2410 H         1 UNK         0.0000
     42 H12        -8.8200    1.2720   -0.2990 H         1 UNK         0.0000
     43 H13        -9.4690    0.0610    3.7480 H         1 UNK         0.0000
     44 H14        -5.8900   -0.0020    5.4340 H         1 UNK         0.0000
     45 H15       -10.4870    2.2470    4.2410 H         1 UNK         0.0000
     46 H16       -10.6790    3.9460    2.4730 H         1 UNK         0.0000
     47 H17        -2.9850    0.1110    4.4240 H         1 UNK         0.0000
     48 H18        -7.1680    2.3430    4.8570 H         1 UNK         0.0000
     49 H19        -1.9640    4.2330    4.6910 H         1 UNK         0.0000
     50 H20        -1.3040    1.9020    4.4660 H         1 UNK         0.0000
     51 H21        -3.7500    5.9280    4.9410 H         1 UNK         0.0000
     52 H22        -7.8160    4.6800    5.0860 H         1 UNK         0.0000
     53 H23        -6.1210    6.4590    5.1260 H         1 UNK         0.0000
     54 H24       -10.5710    4.3540    0.0180 H         1 UNK         0.0000
     55 H25        -9.2520    3.6780   -0.7750 H         1 UNK         0.0000
@<TRIPOS>BOND
     1    1   17 2
     2    2    3 1
     3    2   13 1
     4    2   14 1
     5    3    8 2
     6    4   13 1
     7    4   17 am
     8    4   41 1
     9    5   17 am
    10    5   18 1
    11    5   44 1
    12    6   20 1
    13    6   54 1
    14    6   55 1
    15    7    8 1
    16    7    9 1
    17    7   10 1
    18    7   11 1
    19    8   12 1
    20    9   31 1
    21    9   32 1
    22    9   33 1
    23   10   34 1
    24   10   35 1
    25   10   36 1
    26   11   37 1
    27   11   38 1
    28   11   39 1
    29   12   13 2
    30   12   40 1
    31   14   15 ar
    32   14   16 ar
    33   15   20 ar
    34   15   42 1
    35   16   22 ar
    36   16   43 1
    37   18   19 ar
    38   18   24 ar
    39   19   21 ar
    40   19   25 ar
    41   20   23 ar
    42   21   26 ar
    43   21   28 ar
    44   22   23 ar
    45   22   45 1
    46   23   46 1
    47   24   27 ar
    48   24   47 1
    49   25   29 ar
    50   25   48 1
    51   26   27 ar
    52   26   49 1
    53   27   50 1
    54   28   30 ar
    55   28   51 1
    56   29   30 ar
    57   29   52 1
    58   30   53 1
