@<TRIPOS>MOLECULE
25174101
   55    58     0     0     0
SMALL
NO_CHARGES

@<TRIPOS>ATOM
      1 O1          9.3980   -3.8900  -10.7980 O.2       1 UNK         0.0000
      2 N1          7.2240   -6.2080  -10.0700 N.pl3     1 UNK         0.0000
      3 N2          6.1230   -6.0530   -9.2200 N.2       1 UNK         0.0000
      4 N3          9.6510   -5.8820   -9.8500 N.am      1 UNK         0.0000
      5 N4         11.3840   -4.8560  -11.0300 N.am      1 UNK         0.0000
      6 N5          7.6830   -9.7180  -13.3530 N.pl3     1 UNK         0.0000
      7 C1          5.6970   -5.3430   -6.8530 C.3       1 UNK         0.0000
      8 C2          6.5550   -5.6360   -8.0560 C.2       1 UNK         0.0000
      9 C3          4.9770   -4.0080   -7.0530 C.3       1 UNK         0.0000
     10 C4          4.6650   -6.4580   -6.6770 C.3       1 UNK         0.0000
     11 C5          6.5790   -5.2650   -5.6050 C.3       1 UNK         0.0000
     12 C6          7.9460   -5.5160   -8.1180 C.2       1 UNK         0.0000
     13 C7          8.3410   -5.8670   -9.3710 C.2       1 UNK         0.0000
     14 C8          7.1840   -6.6380  -11.4040 C.ar      1 UNK         0.0000
     15 C9          7.4580   -7.9620  -11.7150 C.ar      1 UNK         0.0000
     16 C10         6.8740   -5.7380  -12.4150 C.ar      1 UNK         0.0000
     17 C11        10.1190   -4.8420  -10.5680 C.2       1 UNK         0.0000
     18 C12        11.9070   -3.7320  -11.6720 C.ar      1 UNK         0.0000
     19 C13        12.3450   -2.6210  -10.9200 C.ar      1 UNK         0.0000
     20 C14         7.4120   -8.3850  -13.0360 C.ar      1 UNK         0.0000
     21 C15        12.8710   -1.4910  -11.5930 C.ar      1 UNK         0.0000
     22 C16         6.8340   -6.1610  -13.7300 C.ar      1 UNK         0.0000
     23 C17         7.1020   -7.4790  -14.0440 C.ar      1 UNK         0.0000
     24 C18        11.9980   -3.6970  -13.0470 C.ar      1 UNK         0.0000
     25 C19        12.2710   -2.6150   -9.5190 C.ar      1 UNK         0.0000
     26 C20        12.9470   -1.4950  -12.9970 C.ar      1 UNK         0.0000
     27 C21        12.5160   -2.5800  -13.6970 C.ar      1 UNK         0.0000
     28 C22        13.3080   -0.3860  -10.8440 C.ar      1 UNK         0.0000
     29 C23        12.7040   -1.5270   -8.8240 C.ar      1 UNK         0.0000
     30 C24        13.2200   -0.4150   -9.4860 C.ar      1 UNK         0.0000
     31 H1          4.7040   -3.5940   -6.0820 H         1 UNK         0.0000
     32 H2          5.6390   -3.3120   -7.5700 H         1 UNK         0.0000
     33 H3          4.0780   -4.1640   -7.6470 H         1 UNK         0.0000
     34 H4          3.7440   -6.0410   -6.2700 H         1 UNK         0.0000
     35 H5          4.4600   -6.9190   -7.6440 H         1 UNK         0.0000
     36 H6          5.0560   -7.2110   -5.9930 H         1 UNK         0.0000
     37 H7          7.3690   -4.5310   -5.7630 H         1 UNK         0.0000
     38 H8          5.9730   -4.9660   -4.7490 H         1 UNK         0.0000
     39 H9          7.0240   -6.2410   -5.4120 H         1 UNK         0.0000
     40 H10         8.5920   -5.1970   -7.3130 H         1 UNK         0.0000
     41 H11        10.2260   -6.6420   -9.6660 H         1 UNK         0.0000
     42 H12         7.7030   -8.6620  -10.9300 H         1 UNK         0.0000
     43 H13         6.6650   -4.7060  -12.1730 H         1 UNK         0.0000
     44 H14        11.9330   -5.6480  -10.9170 H         1 UNK         0.0000
     45 H15         6.5930   -5.4590  -14.5150 H         1 UNK         0.0000
     46 H16         7.0690   -7.8070  -15.0720 H         1 UNK         0.0000
     47 H17        11.6630   -4.5450  -13.6260 H         1 UNK         0.0000
     48 H18        11.8720   -3.4710   -8.9930 H         1 UNK         0.0000
     49 H19        13.3420   -0.6370  -13.5190 H         1 UNK         0.0000
     50 H20        12.5770   -2.5750  -14.7750 H         1 UNK         0.0000
     51 H21        13.7120    0.4830  -11.3430 H         1 UNK         0.0000
     52 H22        12.6450   -1.5260   -7.7460 H         1 UNK         0.0000
     53 H23        13.5570    0.4360   -8.9120 H         1 UNK         0.0000
     54 H24         6.9810  -10.2840  -13.7110 H         1 UNK         0.0000
     55 H25         8.5740  -10.0770  -13.2160 H         1 UNK         0.0000
@<TRIPOS>BOND
     1    1   17 2
     2    2    3 1
     3    2   13 1
     4    2   14 1
     5    3    8 2
     6    4   13 1
     7    4   17 am
     8    4   41 1
     9    5   17 am
    10    5   18 1
    11    5   44 1
    12    6   20 1
    13    6   54 1
    14    6   55 1
    15    7    8 1
    16    7    9 1
    17    7   10 1
    18    7   11 1
    19    8   12 1
    20    9   31 1
    21    9   32 1
    22    9   33 1
    23   10   34 1
    24   10   35 1
    25   10   36 1
    26   11   37 1
    27   11   38 1
    28   11   39 1
    29   12   13 2
    30   12   40 1
    31   14   15 ar
    32   14   16 ar
    33   15   20 ar
    34   15   42 1
    35   16   22 ar
    36   16   43 1
    37   18   19 ar
    38   18   24 ar
    39   19   21 ar
    40   19   25 ar
    41   20   23 ar
    42   21   26 ar
    43   21   28 ar
    44   22   23 ar
    45   22   45 1
    46   23   46 1
    47   24   27 ar
    48   24   47 1
    49   25   29 ar
    50   25   48 1
    51   26   27 ar
    52   26   49 1
    53   27   50 1
    54   28   30 ar
    55   28   51 1
    56   29   30 ar
    57   29   52 1
    58   30   53 1
