@<TRIPOS>MOLECULE
5328940
   65    68     0     0     0
SMALL
NO_CHARGES

@<TRIPOS>ATOM
      1 Cl1         6.1340  -23.3970    4.5070 Cl        1 UNK         0.0000
      2 Cl2        10.6580  -26.0850    5.7250 Cl        1 UNK         0.0000
      3 O1          2.5910  -28.4390    1.3220 O.3       1 UNK         0.0000
      4 O2          3.4120  -26.9210    3.4590 O.3       1 UNK         0.0000
      5 O3         10.9980  -26.1970    2.7940 O.3       1 UNK         0.0000
      6 N1          6.0030  -30.2220    1.0730 N.3       1 UNK         0.0000
      7 N2          8.6390  -29.1810    0.8000 N.3       1 UNK         0.0000
      8 N3          6.9840  -23.8240    1.6900 N.pl3     1 UNK         0.0000
      9 N4          5.6700  -26.1660   -1.4870 N.ar      1 UNK         0.0000
     10 N5          8.9200  -22.7220   -1.0950 N.1       1 UNK         0.0000
     11 C1          7.0220  -30.9530    0.3070 C.3       1 UNK         0.0000
     12 C2          6.6200  -29.4470    2.1590 C.3       1 UNK         0.0000
     13 C3          8.0220  -29.9580   -0.2850 C.3       1 UNK         0.0000
     14 C4          7.6200  -28.4520    1.5670 C.3       1 UNK         0.0000
     15 C5          4.9800  -31.1390    1.5950 C.3       1 UNK         0.0000
     16 C6          3.8230  -30.3310    2.1840 C.3       1 UNK         0.0000
     17 C7          9.6620  -28.2660    0.2790 C.3       1 UNK         0.0000
     18 C8          2.9440  -29.7970    1.0520 C.3       1 UNK         0.0000
     19 C9          3.5590  -27.5020    1.1490 C.ar      1 UNK         0.0000
     20 C10         3.9780  -26.7270    2.2390 C.ar      1 UNK         0.0000
     21 C11         5.5360  -25.5790    0.8270 C.ar      1 UNK         0.0000
     22 C12         4.1180  -27.3240   -0.0970 C.ar      1 UNK         0.0000
     23 C13         5.1190  -26.3570   -0.2790 C.ar      1 UNK         0.0000
     24 C14         4.9500  -25.7810    2.0860 C.ar      1 UNK         0.0000
     25 C15         6.5450  -24.6060    0.6410 C.ar      1 UNK         0.0000
     26 C16         7.0840  -24.4600   -0.6460 C.ar      1 UNK         0.0000
     27 C17         6.6090  -25.2760   -1.6870 C.ar      1 UNK         0.0000
     28 C18         7.8560  -24.3600    2.6440 C.ar      1 UNK         0.0000
     29 C19         9.0070  -25.0190    2.2400 C.ar      1 UNK         0.0000
     30 C20         4.2680  -26.7990    4.5980 C.3       1 UNK         0.0000
     31 C21         7.5710  -24.2280    3.9990 C.ar      1 UNK         0.0000
     32 C22         9.8690  -25.5500    3.1870 C.ar      1 UNK         0.0000
     33 C23         8.1080  -23.4910   -0.8970 C.1       1 UNK         0.0000
     34 C24         8.4300  -24.7630    4.9410 C.ar      1 UNK         0.0000
     35 C25         9.5780  -25.4200    4.5380 C.ar      1 UNK         0.0000
     36 C26        11.8530  -25.5110    1.8760 C.3       1 UNK         0.0000
     37 H1          7.5450  -31.6460    0.9660 H         1 UNK         0.0000
     38 H2          6.5420  -31.5090   -0.4980 H         1 UNK         0.0000
     39 H3          5.8460  -28.9060    2.7030 H         1 UNK         0.0000
     40 H4          7.1380  -30.1230    2.8390 H         1 UNK         0.0000
     41 H5          7.5040  -29.2820   -0.9650 H         1 UNK         0.0000
     42 H6          8.7960  -30.4990   -0.8300 H         1 UNK         0.0000
     43 H7          7.0970  -27.7590    0.9080 H         1 UNK         0.0000
     44 H8          8.0990  -27.8960    2.3720 H         1 UNK         0.0000
     45 H9          5.4180  -31.7660    2.3720 H         1 UNK         0.0000
     46 H10         4.6090  -31.7680    0.7860 H         1 UNK         0.0000
     47 H11         4.2190  -29.4950    2.7610 H         1 UNK         0.0000
     48 H12         3.2270  -30.9710    2.8350 H         1 UNK         0.0000
     49 H13        10.6360  -28.5440    0.6790 H         1 UNK         0.0000
     50 H14         9.6850  -28.3290   -0.8090 H         1 UNK         0.0000
     51 H15         9.4220  -27.2460    0.5790 H         1 UNK         0.0000
     52 H16         2.0390  -30.4000    0.9790 H         1 UNK         0.0000
     53 H17         3.4920  -29.8490    0.1110 H         1 UNK         0.0000
     54 H18         3.7880  -27.9260   -0.9300 H         1 UNK         0.0000
     55 H19         5.2670  -25.1880    2.9320 H         1 UNK         0.0000
     56 H20         6.6890  -22.9040    1.7670 H         1 UNK         0.0000
     57 H21         7.0250  -25.1630   -2.6760 H         1 UNK         0.0000
     58 H22         9.2330  -25.1200    1.1880 H         1 UNK         0.0000
     59 H23         4.7430  -25.8180    4.5930 H         1 UNK         0.0000
     60 H24         3.6790  -26.9140    5.5080 H         1 UNK         0.0000
     61 H25         5.0340  -27.5740    4.5600 H         1 UNK         0.0000
     62 H26         8.2060  -24.6620    5.9930 H         1 UNK         0.0000
     63 H27        12.0700  -26.1600    1.0280 H         1 UNK         0.0000
     64 H28        11.3580  -24.6060    1.5250 H         1 UNK         0.0000
     65 H29        12.7840  -25.2450    2.3770 H         1 UNK         0.0000
@<TRIPOS>BOND
     1    1   31 1
     2    2   35 1
     3    3   18 1
     4    3   19 1
     5    4   20 1
     6    4   30 1
     7    5   32 1
     8    5   36 1
     9    6   11 1
    10    6   12 1
    11    6   15 1
    12    7   13 1
    13    7   14 1
    14    7   17 1
    15    8   25 1
    16    8   28 1
    17    8   56 1
    18    9   23 ar
    19    9   27 ar
    20   10   33 3
    21   11   13 1
    22   11   37 1
    23   11   38 1
    24   12   14 1
    25   12   39 1
    26   12   40 1
    27   13   41 1
    28   13   42 1
    29   14   43 1
    30   14   44 1
    31   15   16 1
    32   15   45 1
    33   15   46 1
    34   16   18 1
    35   16   47 1
    36   16   48 1
    37   17   49 1
    38   17   50 1
    39   17   51 1
    40   18   52 1
    41   18   53 1
    42   19   20 ar
    43   19   22 ar
    44   20   24 ar
    45   21   23 ar
    46   21   24 ar
    47   21   25 ar
    48   22   23 ar
    49   22   54 1
    50   24   55 1
    51   25   26 ar
    52   26   27 ar
    53   26   33 1
    54   27   57 1
    55   28   29 ar
    56   28   31 ar
    57   29   32 ar
    58   29   58 1
    59   30   59 1
    60   30   60 1
    61   30   61 1
    62   31   34 ar
    63   32   35 ar
    64   34   35 ar
    65   34   62 1
    66   36   63 1
    67   36   64 1
    68   36   65 1
