@<TRIPOS>MOLECULE
5328940
   65    68     0     0     0
SMALL
NO_CHARGES

@<TRIPOS>ATOM
      1 Cl1         4.6910  -25.0200    3.6250 Cl        1 UNK         0.0000
      2 Cl2         4.9560  -30.3750    2.9740 Cl        1 UNK         0.0000
      3 O1         10.1190  -23.5380   -0.7570 O.3       1 UNK         0.0000
      4 O2          8.9870  -24.2470    1.6440 O.3       1 UNK         0.0000
      5 O3          4.3310  -29.7400    0.1580 O.3       1 UNK         0.0000
      6 N1         10.1210  -27.6620   -0.2290 N.3       1 UNK         0.0000
      7 N2          8.7790  -28.1220    2.2400 N.3       1 UNK         0.0000
      8 N3          4.0810  -24.9880    0.7160 N.pl3     1 UNK         0.0000
      9 N4          5.8860  -23.9140   -2.8740 N.ar      1 UNK         0.0000
     10 N5          1.4240  -25.0060   -1.6630 N.1       1 UNK         0.0000
     11 C1          8.6530  -27.6550   -0.1600 C.3       1 UNK         0.0000
     12 C2         10.7070  -27.2060    1.0400 C.3       1 UNK         0.0000
     13 C3          8.1930  -28.5770    0.9700 C.3       1 UNK         0.0000
     14 C4         10.2470  -28.1280    2.1700 C.3       1 UNK         0.0000
     15 C5         10.5990  -26.8460   -1.3530 C.3       1 UNK         0.0000
     16 C6         11.3420  -25.6210   -0.8160 C.3       1 UNK         0.0000
     17 C7          8.3010  -28.9370    3.3630 C.3       1 UNK         0.0000
     18 C8         10.9110  -24.3790   -1.5970 C.3       1 UNK         0.0000
     19 C9          8.7880  -23.8040   -0.6940 C.ar      1 UNK         0.0000
     20 C10         8.2100  -24.1660    0.5310 C.ar      1 UNK         0.0000
     21 C11         6.0710  -24.3540   -0.5310 C.ar      1 UNK         0.0000
     22 C12         8.0220  -23.7150   -1.8340 C.ar      1 UNK         0.0000
     23 C13         6.6470  -23.9890   -1.7720 C.ar      1 UNK         0.0000
     24 C14         6.8750  -24.4370    0.6160 C.ar      1 UNK         0.0000
     25 C15         4.6860  -24.6290   -0.4720 C.ar      1 UNK         0.0000
     26 C16         3.9460  -24.5260   -1.6590 C.ar      1 UNK         0.0000
     27 C17         4.6010  -24.1580   -2.8470 C.ar      1 UNK         0.0000
     28 C18         4.2870  -26.2640    1.2480 C.ar      1 UNK         0.0000
     29 C19         4.2060  -27.3800    0.4280 C.ar      1 UNK         0.0000
     30 C20         8.3400  -24.6350    2.8590 C.3       1 UNK         0.0000
     31 C21         4.5810  -26.4160    2.5990 C.ar      1 UNK         0.0000
     32 C22         4.4110  -28.6450    0.9590 C.ar      1 UNK         0.0000
     33 C23         2.5390  -24.7930   -1.6620 C.1       1 UNK         0.0000
     34 C24         4.7810  -27.6780    3.1260 C.ar      1 UNK         0.0000
     35 C25         4.6990  -28.7910    2.3090 C.ar      1 UNK         0.0000
     36 C26         4.2680  -29.5100   -1.2520 C.3       1 UNK         0.0000
     37 H1          8.3030  -26.6400    0.0310 H         1 UNK         0.0000
     38 H2          8.2430  -28.0080   -1.1070 H         1 UNK         0.0000
     39 H3         11.7940  -27.2330    0.9670 H         1 UNK         0.0000
     40 H4         10.3800  -26.1870    1.2450 H         1 UNK         0.0000
     41 H5          8.5200  -29.5960    0.7640 H         1 UNK         0.0000
     42 H6          7.1060  -28.5510    1.0430 H         1 UNK         0.0000
     43 H7         10.5970  -29.1430    1.9780 H         1 UNK         0.0000
     44 H8         10.6580  -27.7750    3.1160 H         1 UNK         0.0000
     45 H9          9.7490  -26.5210   -1.9530 H         1 UNK         0.0000
     46 H10        11.2740  -27.4370   -1.9710 H         1 UNK         0.0000
     47 H11        12.4160  -25.7680   -0.9320 H         1 UNK         0.0000
     48 H12        11.1060  -25.4860    0.2400 H         1 UNK         0.0000
     49 H13         8.5960  -28.4710    4.3030 H         1 UNK         0.0000
     50 H14         7.2140  -29.0120    3.3210 H         1 UNK         0.0000
     51 H15         8.7370  -29.9340    3.2990 H         1 UNK         0.0000
     52 H16        10.3240  -24.6810   -2.4650 H         1 UNK         0.0000
     53 H17        11.7950  -23.8330   -1.9290 H         1 UNK         0.0000
     54 H18         8.4770  -23.4360   -2.7720 H         1 UNK         0.0000
     55 H19         6.4380  -24.7150    1.5640 H         1 UNK         0.0000
     56 H20         3.5120  -24.3540    1.1810 H         1 UNK         0.0000
     57 H21         4.0300  -24.0790   -3.7600 H         1 UNK         0.0000
     58 H22         3.9820  -27.2650   -0.6220 H         1 UNK         0.0000
     59 H23         8.8750  -24.2100    3.7070 H         1 UNK         0.0000
     60 H24         7.3130  -24.2680    2.8560 H         1 UNK         0.0000
     61 H25         8.3380  -25.7220    2.9370 H         1 UNK         0.0000
     62 H26         5.0050  -27.7940    4.1760 H         1 UNK         0.0000
     63 H27         4.8700  -28.6370   -1.5040 H         1 UNK         0.0000
     64 H28         4.6520  -30.3830   -1.7800 H         1 UNK         0.0000
     65 H29         3.2320  -29.3340   -1.5440 H         1 UNK         0.0000
@<TRIPOS>BOND
     1    1   31 1
     2    2   35 1
     3    3   18 1
     4    3   19 1
     5    4   20 1
     6    4   30 1
     7    5   32 1
     8    5   36 1
     9    6   11 1
    10    6   12 1
    11    6   15 1
    12    7   13 1
    13    7   14 1
    14    7   17 1
    15    8   25 1
    16    8   28 1
    17    8   56 1
    18    9   23 ar
    19    9   27 ar
    20   10   33 3
    21   11   13 1
    22   11   37 1
    23   11   38 1
    24   12   14 1
    25   12   39 1
    26   12   40 1
    27   13   41 1
    28   13   42 1
    29   14   43 1
    30   14   44 1
    31   15   16 1
    32   15   45 1
    33   15   46 1
    34   16   18 1
    35   16   47 1
    36   16   48 1
    37   17   49 1
    38   17   50 1
    39   17   51 1
    40   18   52 1
    41   18   53 1
    42   19   20 ar
    43   19   22 ar
    44   20   24 ar
    45   21   23 ar
    46   21   24 ar
    47   21   25 ar
    48   22   23 ar
    49   22   54 1
    50   24   55 1
    51   25   26 ar
    52   26   27 ar
    53   26   33 1
    54   27   57 1
    55   28   29 ar
    56   28   31 ar
    57   29   32 ar
    58   29   58 1
    59   30   59 1
    60   30   60 1
    61   30   61 1
    62   31   34 ar
    63   32   35 ar
    64   34   35 ar
    65   34   62 1
    66   36   63 1
    67   36   64 1
    68   36   65 1
