@<TRIPOS>MOLECULE
5328940
   65    68     0     0     0
SMALL
NO_CHARGES

@<TRIPOS>ATOM
      1 Cl1         2.0680  -23.2910   -0.8040 Cl        1 UNK         0.0000
      2 Cl2         1.9010  -28.5660    0.3430 Cl        1 UNK         0.0000
      3 O1          6.0220  -24.2430   -6.7800 O.3       1 UNK         0.0000
      4 O2          3.6790  -24.1900   -5.3450 O.3       1 UNK         0.0000
      5 O3          4.8360  -28.2940    0.5170 O.3       1 UNK         0.0000
      6 N1          7.3560  -27.9640   -5.1370 N.3       1 UNK         0.0000
      7 N2          7.8070  -27.1460   -2.4470 N.3       1 UNK         0.0000
      8 N3          5.0090  -23.6170   -0.5090 N.pl3     1 UNK         0.0000
      9 N4          8.5010  -23.7000   -2.7670 N.ar      1 UNK         0.0000
     10 N5          7.6290  -23.2460    1.8810 N.1       1 UNK         0.0000
     11 C1          6.2380  -27.5290   -4.2870 C.3       1 UNK         0.0000
     12 C2          8.5980  -27.2750   -4.7600 C.3       1 UNK         0.0000
     13 C3          6.5640  -27.8340   -2.8240 C.3       1 UNK         0.0000
     14 C4          8.9240  -27.5800   -3.2970 C.3       1 UNK         0.0000
     15 C5          7.0470  -27.7570   -6.5580 C.3       1 UNK         0.0000
     16 C6          5.9920  -26.6580   -6.6970 C.3       1 UNK         0.0000
     17 C7          8.1140  -27.3520   -1.0260 C.3       1 UNK         0.0000
     18 C8          6.6270  -25.4160   -7.3250 C.3       1 UNK         0.0000
     19 C9          6.0640  -24.0970   -5.4290 C.ar      1 UNK         0.0000
     20 C10         4.8690  -24.0700   -4.6970 C.ar      1 UNK         0.0000
     21 C11         6.1140  -23.7990   -2.6690 C.ar      1 UNK         0.0000
     22 C12         7.2800  -23.9760   -4.7950 C.ar      1 UNK         0.0000
     23 C13         7.3250  -23.8250   -3.4010 C.ar      1 UNK         0.0000
     24 C14         4.8880  -23.9240   -3.3400 C.ar      1 UNK         0.0000
     25 C15         6.1640  -23.6470   -1.2650 C.ar      1 UNK         0.0000
     26 C16         7.4250  -23.5280   -0.6630 C.ar      1 UNK         0.0000
     27 C17         8.5770  -23.5640   -1.4680 C.ar      1 UNK         0.0000
     28 C18         4.2750  -24.7900   -0.3070 C.ar      1 UNK         0.0000
     29 C19         4.9280  -25.9720    0.0090 C.ar      1 UNK         0.0000
     30 C20         2.5600  -23.5020   -4.7800 C.3       1 UNK         0.0000
     31 C21         2.8890  -24.7710   -0.4160 C.ar      1 UNK         0.0000
     32 C22         4.1980  -27.1340    0.2090 C.ar      1 UNK         0.0000
     33 C23         7.5400  -23.3710    0.7560 C.1       1 UNK         0.0000
     34 C24         2.1640  -25.9320   -0.2220 C.ar      1 UNK         0.0000
     35 C25         2.8150  -27.1110    0.0930 C.ar      1 UNK         0.0000
     36 C26         5.6230  -28.3040    1.7110 C.3       1 UNK         0.0000
     37 H1          6.0830  -26.4570   -4.4100 H         1 UNK         0.0000
     38 H2          5.3320  -28.0620   -4.5770 H         1 UNK         0.0000
     39 H3          9.4120  -27.6240   -5.3960 H         1 UNK         0.0000
     40 H4          8.4710  -26.2010   -4.8880 H         1 UNK         0.0000
     41 H5          6.6910  -28.9090   -2.6960 H         1 UNK         0.0000
     42 H6          5.7490  -27.4860   -2.1890 H         1 UNK         0.0000
     43 H7          9.0780  -28.6520   -3.1740 H         1 UNK         0.0000
     44 H8          9.8300  -27.0480   -3.0080 H         1 UNK         0.0000
     45 H9          6.6650  -28.6830   -6.9850 H         1 UNK         0.0000
     46 H10         7.9520  -27.4590   -7.0870 H         1 UNK         0.0000
     47 H11         5.5990  -26.4060   -5.7120 H         1 UNK         0.0000
     48 H12         5.1800  -27.0120   -7.3320 H         1 UNK         0.0000
     49 H13         7.1940  -27.3120   -0.4450 H         1 UNK         0.0000
     50 H14         8.5840  -28.3270   -0.8940 H         1 UNK         0.0000
     51 H15         8.7940  -26.5710   -0.6850 H         1 UNK         0.0000
     52 H16         6.4740  -25.4370   -8.4040 H         1 UNK         0.0000
     53 H17         7.6970  -25.4070   -7.1100 H         1 UNK         0.0000
     54 H18         8.1940  -23.9980   -5.3690 H         1 UNK         0.0000
     55 H19         3.9620  -23.9040   -2.7840 H         1 UNK         0.0000
     56 H20         4.7060  -22.7820   -0.1190 H         1 UNK         0.0000
     57 H21         9.5470  -23.4720   -1.0030 H         1 UNK         0.0000
     58 H22         6.0050  -25.9880    0.0990 H         1 UNK         0.0000
     59 H23         2.6210  -23.5410   -3.6930 H         1 UNK         0.0000
     60 H24         2.5710  -22.4630   -5.1080 H         1 UNK         0.0000
     61 H25         1.6380  -23.9790   -5.1100 H         1 UNK         0.0000
     62 H26         1.0870  -25.9170   -0.3110 H         1 UNK         0.0000
     63 H27         6.0020  -27.3010    1.9040 H         1 UNK         0.0000
     64 H28         5.0060  -28.6280    2.5500 H         1 UNK         0.0000
     65 H29         6.4600  -28.9920    1.5880 H         1 UNK         0.0000
@<TRIPOS>BOND
     1    1   31 1
     2    2   35 1
     3    3   18 1
     4    3   19 1
     5    4   20 1
     6    4   30 1
     7    5   32 1
     8    5   36 1
     9    6   11 1
    10    6   12 1
    11    6   15 1
    12    7   13 1
    13    7   14 1
    14    7   17 1
    15    8   25 1
    16    8   28 1
    17    8   56 1
    18    9   23 ar
    19    9   27 ar
    20   10   33 3
    21   11   13 1
    22   11   37 1
    23   11   38 1
    24   12   14 1
    25   12   39 1
    26   12   40 1
    27   13   41 1
    28   13   42 1
    29   14   43 1
    30   14   44 1
    31   15   16 1
    32   15   45 1
    33   15   46 1
    34   16   18 1
    35   16   47 1
    36   16   48 1
    37   17   49 1
    38   17   50 1
    39   17   51 1
    40   18   52 1
    41   18   53 1
    42   19   20 ar
    43   19   22 ar
    44   20   24 ar
    45   21   23 ar
    46   21   24 ar
    47   21   25 ar
    48   22   23 ar
    49   22   54 1
    50   24   55 1
    51   25   26 ar
    52   26   27 ar
    53   26   33 1
    54   27   57 1
    55   28   29 ar
    56   28   31 ar
    57   29   32 ar
    58   29   58 1
    59   30   59 1
    60   30   60 1
    61   30   61 1
    62   31   34 ar
    63   32   35 ar
    64   34   35 ar
    65   34   62 1
    66   36   63 1
    67   36   64 1
    68   36   65 1
