@<TRIPOS>MOLECULE
5328940
   65    68     0     0     0
SMALL
NO_CHARGES

@<TRIPOS>ATOM
      1 Cl1         0.8110  -22.7420   -0.1730 Cl        1 UNK         0.0000
      2 Cl2         0.4150  -27.9470    1.2170 Cl        1 UNK         0.0000
      3 O1         10.0180  -23.8460   -0.5380 O.3       1 UNK         0.0000
      4 O2          8.1920  -23.4480    1.4760 O.3       1 UNK         0.0000
      5 O3          3.2820  -28.0200    0.5140 O.3       1 UNK         0.0000
      6 N1         10.5430  -26.3830    2.0270 N.3       1 UNK         0.0000
      7 N2          8.4230  -27.3240    3.6780 N.3       1 UNK         0.0000
      8 N3          3.6540  -23.4090   -0.7340 N.pl3     1 UNK         0.0000
      9 N4          6.4930  -24.0160   -3.7130 N.ar      1 UNK         0.0000
     10 N5          1.7540  -23.6700   -3.7420 N.1       1 UNK         0.0000
     11 C1          9.2800  -26.8460    1.4350 C.3       1 UNK         0.0000
     12 C2         10.3150  -25.8040    3.3590 C.3       1 UNK         0.0000
     13 C3          8.6500  -27.9020    2.3460 C.3       1 UNK         0.0000
     14 C4          9.6850  -26.8600    4.2690 C.3       1 UNK         0.0000
     15 C5         11.2170  -25.4230    1.1440 C.3       1 UNK         0.0000
     16 C6         11.1910  -25.9450   -0.2940 C.3       1 UNK         0.0000
     17 C7          7.7480  -28.2840    4.5610 C.3       1 UNK         0.0000
     18 C8         10.8000  -24.8110   -1.2430 C.3       1 UNK         0.0000
     19 C9          8.6930  -23.7890   -0.8330 C.ar      1 UNK         0.0000
     20 C10         7.7610  -23.5860    0.1940 C.ar      1 UNK         0.0000
     21 C11         5.9790  -23.6670   -1.4040 C.ar      1 UNK         0.0000
     22 C12         8.2810  -23.9310   -2.1390 C.ar      1 UNK         0.0000
     23 C13         6.9130  -23.8730   -2.4470 C.ar      1 UNK         0.0000
     24 C14         6.4260  -23.5250   -0.0810 C.ar      1 UNK         0.0000
     25 C15         4.6020  -23.6080   -1.7180 C.ar      1 UNK         0.0000
     26 C16         4.2290  -23.7590   -3.0620 C.ar      1 UNK         0.0000
     27 C17         5.2250  -23.9600   -4.0330 C.ar      1 UNK         0.0000
     28 C18         2.8890  -24.4850   -0.2720 C.ar      1 UNK         0.0000
     29 C19         3.4730  -25.7320   -0.1070 C.ar      1 UNK         0.0000
     30 C20         7.3080  -23.8940    2.5080 C.3       1 UNK         0.0000
     31 C21         1.5430  -24.3040    0.0270 C.ar      1 UNK         0.0000
     32 C22         2.7130  -26.7970    0.3510 C.ar      1 UNK         0.0000
     33 C23         2.8490  -23.7090   -3.4420 C.1       1 UNK         0.0000
     34 C24         0.7860  -25.3690    0.4780 C.ar      1 UNK         0.0000
     35 C25         1.3680  -26.6130    0.6430 C.ar      1 UNK         0.0000
     36 C26         3.4960  -28.7990   -0.6670 C.3       1 UNK         0.0000
     37 H1          8.5970  -26.0030    1.3280 H         1 UNK         0.0000
     38 H2          9.4760  -27.2820    0.4550 H         1 UNK         0.0000
     39 H3         11.2670  -25.4810    3.7810 H         1 UNK         0.0000
     40 H4          9.6450  -24.9500    3.2740 H         1 UNK         0.0000
     41 H5          9.3210  -28.7570    2.4300 H         1 UNK         0.0000
     42 H6          7.6990  -28.2260    1.9240 H         1 UNK         0.0000
     43 H7         10.3680  -27.7030    4.3760 H         1 UNK         0.0000
     44 H8          9.4900  -26.4250    5.2490 H         1 UNK         0.0000
     45 H9         12.2500  -25.2970    1.4650 H         1 UNK         0.0000
     46 H10        10.7030  -24.4630    1.1900 H         1 UNK         0.0000
     47 H11        10.4630  -26.7530   -0.3730 H         1 UNK         0.0000
     48 H12        12.1790  -26.3200   -0.5630 H         1 UNK         0.0000
     49 H13         6.8790  -27.8110    5.0170 H         1 UNK         0.0000
     50 H14         7.4280  -29.1490    3.9810 H         1 UNK         0.0000
     51 H15         8.4380  -28.6050    5.3420 H         1 UNK         0.0000
     52 H16        10.2180  -25.2150   -2.0710 H         1 UNK         0.0000
     53 H17        11.7020  -24.3350   -1.6300 H         1 UNK         0.0000
     54 H18         9.0070  -24.0880   -2.9220 H         1 UNK         0.0000
     55 H19         5.7140  -23.3680    0.7160 H         1 UNK         0.0000
     56 H20         3.5190  -22.5230   -0.3630 H         1 UNK         0.0000
     57 H21         4.9370  -24.0760   -5.0670 H         1 UNK         0.0000
     58 H22         4.5200  -25.8740   -0.3340 H         1 UNK         0.0000
     59 H23         6.9940  -24.9160    2.3020 H         1 UNK         0.0000
     60 H24         7.8250  -23.8590    3.4670 H         1 UNK         0.0000
     61 H25         6.4340  -23.2440    2.5420 H         1 UNK         0.0000
     62 H26        -0.2610  -25.2280    0.7060 H         1 UNK         0.0000
     63 H27         2.5390  -29.1570   -1.0430 H         1 UNK         0.0000
     64 H28         3.9790  -28.1830   -1.4250 H         1 UNK         0.0000
     65 H29         4.1350  -29.6500   -0.4290 H         1 UNK         0.0000
@<TRIPOS>BOND
     1    1   31 1
     2    2   35 1
     3    3   18 1
     4    3   19 1
     5    4   20 1
     6    4   30 1
     7    5   32 1
     8    5   36 1
     9    6   11 1
    10    6   12 1
    11    6   15 1
    12    7   13 1
    13    7   14 1
    14    7   17 1
    15    8   25 1
    16    8   28 1
    17    8   56 1
    18    9   23 ar
    19    9   27 ar
    20   10   33 3
    21   11   13 1
    22   11   37 1
    23   11   38 1
    24   12   14 1
    25   12   39 1
    26   12   40 1
    27   13   41 1
    28   13   42 1
    29   14   43 1
    30   14   44 1
    31   15   16 1
    32   15   45 1
    33   15   46 1
    34   16   18 1
    35   16   47 1
    36   16   48 1
    37   17   49 1
    38   17   50 1
    39   17   51 1
    40   18   52 1
    41   18   53 1
    42   19   20 ar
    43   19   22 ar
    44   20   24 ar
    45   21   23 ar
    46   21   24 ar
    47   21   25 ar
    48   22   23 ar
    49   22   54 1
    50   24   55 1
    51   25   26 ar
    52   26   27 ar
    53   26   33 1
    54   27   57 1
    55   28   29 ar
    56   28   31 ar
    57   29   32 ar
    58   29   58 1
    59   30   59 1
    60   30   60 1
    61   30   61 1
    62   31   34 ar
    63   32   35 ar
    64   34   35 ar
    65   34   62 1
    66   36   63 1
    67   36   64 1
    68   36   65 1
