@<TRIPOS>MOLECULE
25174101
   55    58     0     0     0
SMALL
NO_CHARGES

@<TRIPOS>ATOM
      1 O1          7.1950   -4.4850  -10.3380 O.2       1 UNK         0.0000
      2 N1         10.3620   -2.5850  -11.3050 N.pl3     1 UNK         0.0000
      3 N2         10.2830   -2.1540  -12.6350 N.2       1 UNK         0.0000
      4 N3          9.3930   -4.4420  -10.0190 N.am      1 UNK         0.0000
      5 N4          7.9570   -5.5240   -8.5290 N.am      1 UNK         0.0000
      6 N5         10.9810    1.0180   -8.1520 N.pl3     1 UNK         0.0000
      7 C1          9.1390   -2.8700  -14.7490 C.3       1 UNK         0.0000
      8 C2          9.4950   -2.9710  -13.2880 C.2       1 UNK         0.0000
      9 C3          8.4590   -1.5250  -15.0150 C.3       1 UNK         0.0000
     10 C4         10.4090   -2.9760  -15.5930 C.3       1 UNK         0.0000
     11 C5          8.1830   -4.0060  -15.1200 C.3       1 UNK         0.0000
     12 C6          9.0490   -3.9570  -12.4040 C.2       1 UNK         0.0000
     13 C7          9.5890   -3.6980  -11.1820 C.2       1 UNK         0.0000
     14 C8         11.1060   -1.9790  -10.2840 C.ar      1 UNK         0.0000
     15 C9         10.6770   -0.7810   -9.7300 C.ar      1 UNK         0.0000
     16 C10        12.2760   -2.5730   -9.8280 C.ar      1 UNK         0.0000
     17 C11         8.1470   -4.8060   -9.6530 C.2       1 UNK         0.0000
     18 C12         6.6840   -6.0010   -8.2110 C.ar      1 UNK         0.0000
     19 C13         6.1680   -5.8420   -6.9080 C.ar      1 UNK         0.0000
     20 C14        11.4130   -0.1860   -8.7160 C.ar      1 UNK         0.0000
     21 C15         4.8740   -6.3340   -6.6080 C.ar      1 UNK         0.0000
     22 C16        13.0090   -1.9750   -8.8210 C.ar      1 UNK         0.0000
     23 C17        12.5830   -0.7860   -8.2640 C.ar      1 UNK         0.0000
     24 C18         5.9200   -6.6320   -9.1690 C.ar      1 UNK         0.0000
     25 C19         6.9130   -5.2060   -5.9030 C.ar      1 UNK         0.0000
     26 C20         4.1270   -6.9720   -7.6140 C.ar      1 UNK         0.0000
     27 C21         4.6500   -7.1120   -8.8620 C.ar      1 UNK         0.0000
     28 C22         4.3610   -6.1750   -5.3100 C.ar      1 UNK         0.0000
     29 C23         6.3850   -5.0680   -4.6560 C.ar      1 UNK         0.0000
     30 C24         5.1120   -5.5530   -4.3600 C.ar      1 UNK         0.0000
     31 H1          7.5230   -1.6910  -15.5470 H         1 UNK         0.0000
     32 H2          8.2540   -1.0270  -14.0660 H         1 UNK         0.0000
     33 H3          9.1150   -0.8990  -15.6190 H         1 UNK         0.0000
     34 H4         10.2080   -3.5820  -16.4780 H         1 UNK         0.0000
     35 H5         10.7280   -1.9800  -15.8990 H         1 UNK         0.0000
     36 H6         11.1980   -3.4450  -15.0050 H         1 UNK         0.0000
     37 H7          7.2280   -3.8570  -14.6160 H         1 UNK         0.0000
     38 H8          8.0270   -4.0120  -16.1990 H         1 UNK         0.0000
     39 H9          8.6120   -4.9580  -14.8100 H         1 UNK         0.0000
     40 H10         8.3880   -4.7770  -12.6470 H         1 UNK         0.0000
     41 H11        10.1530   -4.6980   -9.4720 H         1 UNK         0.0000
     42 H12         9.7690   -0.3150  -10.0860 H         1 UNK         0.0000
     43 H13        12.6120   -3.5030  -10.2620 H         1 UNK         0.0000
     44 H14         8.7050   -5.7110   -7.9410 H         1 UNK         0.0000
     45 H15        13.9190   -2.4390   -8.4680 H         1 UNK         0.0000
     46 H16        13.1580   -0.3210   -7.4770 H         1 UNK         0.0000
     47 H17         6.3110   -6.7560  -10.1680 H         1 UNK         0.0000
     48 H18         7.9010   -4.8250   -6.1190 H         1 UNK         0.0000
     49 H19         3.1410   -7.3540   -7.3930 H         1 UNK         0.0000
     50 H20         4.0690   -7.6040   -9.6290 H         1 UNK         0.0000
     51 H21         3.3760   -6.5450   -5.0660 H         1 UNK         0.0000
     52 H22         6.9600   -4.5780   -3.8850 H         1 UNK         0.0000
     53 H23         4.7150   -5.4320   -3.3630 H         1 UNK         0.0000
     54 H24        10.4190    1.0090   -7.3620 H         1 UNK         0.0000
     55 H25        11.2450    1.8620   -8.5520 H         1 UNK         0.0000
@<TRIPOS>BOND
     1    1   17 2
     2    2    3 1
     3    2   13 1
     4    2   14 1
     5    3    8 2
     6    4   13 1
     7    4   17 am
     8    4   41 1
     9    5   17 am
    10    5   18 1
    11    5   44 1
    12    6   20 1
    13    6   54 1
    14    6   55 1
    15    7    8 1
    16    7    9 1
    17    7   10 1
    18    7   11 1
    19    8   12 1
    20    9   31 1
    21    9   32 1
    22    9   33 1
    23   10   34 1
    24   10   35 1
    25   10   36 1
    26   11   37 1
    27   11   38 1
    28   11   39 1
    29   12   13 2
    30   12   40 1
    31   14   15 ar
    32   14   16 ar
    33   15   20 ar
    34   15   42 1
    35   16   22 ar
    36   16   43 1
    37   18   19 ar
    38   18   24 ar
    39   19   21 ar
    40   19   25 ar
    41   20   23 ar
    42   21   26 ar
    43   21   28 ar
    44   22   23 ar
    45   22   45 1
    46   23   46 1
    47   24   27 ar
    48   24   47 1
    49   25   29 ar
    50   25   48 1
    51   26   27 ar
    52   26   49 1
    53   27   50 1
    54   28   30 ar
    55   28   51 1
    56   29   30 ar
    57   29   52 1
    58   30   53 1
