@<TRIPOS>MOLECULE
25174101
   55    58     0     0     0
SMALL
NO_CHARGES

@<TRIPOS>ATOM
      1 O1          6.3710   -5.5080   -4.9660 O.2       1 UNK         0.0000
      2 N1          4.5090   -6.9460   -7.3940 N.pl3     1 UNK         0.0000
      3 N2          5.0960   -7.5560   -8.5090 N.2       1 UNK         0.0000
      4 N3          4.7430   -4.7660   -6.2810 N.am      1 UNK         0.0000
      5 N4          5.1570   -3.8190   -4.1880 N.am      1 UNK         0.0000
      6 N5          0.5980   -9.7140   -6.8040 N.pl3     1 UNK         0.0000
      7 C1          6.8090   -6.9800  -10.2480 C.3       1 UNK         0.0000
      8 C2          5.9580   -6.7200   -9.0320 C.2       1 UNK         0.0000
      9 C3          6.0850   -6.4700  -11.4950 C.3       1 UNK         0.0000
     10 C4          8.1460   -6.2540  -10.1000 C.3       1 UNK         0.0000
     11 C5          7.0580   -8.4840  -10.3830 C.3       1 UNK         0.0000
     12 C6          5.9490   -5.5450   -8.2760 C.2       1 UNK         0.0000
     13 C7          5.0520   -5.7050   -7.2650 C.2       1 UNK         0.0000
     14 C8          3.5350   -7.5120   -6.5600 C.ar      1 UNK         0.0000
     15 C9          2.5490   -8.3270   -7.0970 C.ar      1 UNK         0.0000
     16 C10         3.5530   -7.2530   -5.1950 C.ar      1 UNK         0.0000
     17 C11         5.4560   -4.7260   -5.1380 C.2       1 UNK         0.0000
     18 C12         5.9670   -3.6990   -3.0570 C.ar      1 UNK         0.0000
     19 C13         5.9550   -2.5120   -2.2950 C.ar      1 UNK         0.0000
     20 C14         1.5900   -8.8890   -6.2670 C.ar      1 UNK         0.0000
     21 C15         6.7860   -2.4120   -1.1520 C.ar      1 UNK         0.0000
     22 C16         2.5940   -7.8100   -4.3720 C.ar      1 UNK         0.0000
     23 C17         1.6130   -8.6260   -4.9020 C.ar      1 UNK         0.0000
     24 C18         6.7870   -4.7390   -2.6760 C.ar      1 UNK         0.0000
     25 C19         5.1350   -1.4290   -2.6470 C.ar      1 UNK         0.0000
     26 C20         7.6070   -3.4960   -0.7970 C.ar      1 UNK         0.0000
     27 C21         7.5990   -4.6290   -1.5510 C.ar      1 UNK         0.0000
     28 C22         6.7720   -1.2300   -0.3930 C.ar      1 UNK         0.0000
     29 C23         5.1470   -0.2980   -1.8890 C.ar      1 UNK         0.0000
     30 C24         5.9650   -0.1990   -0.7650 C.ar      1 UNK         0.0000
     31 H1          5.7640   -7.3170  -12.1010 H         1 UNK         0.0000
     32 H2          5.2130   -5.8860  -11.1960 H         1 UNK         0.0000
     33 H3          6.7590   -5.8420  -12.0760 H         1 UNK         0.0000
     34 H4          8.8500   -6.6320  -10.8430 H         1 UNK         0.0000
     35 H5          7.9980   -5.1840  -10.2510 H         1 UNK         0.0000
     36 H6          8.5460   -6.4270   -9.1010 H         1 UNK         0.0000
     37 H7          6.1140   -9.0200  -10.2880 H         1 UNK         0.0000
     38 H8          7.4960   -8.6940  -11.3600 H         1 UNK         0.0000
     39 H9          7.7420   -8.8120   -9.6000 H         1 UNK         0.0000
     40 H10         6.5490   -4.6660   -8.4610 H         1 UNK         0.0000
     41 H11         4.0130   -4.1410   -6.4190 H         1 UNK         0.0000
     42 H12         2.5310   -8.5250   -8.1580 H         1 UNK         0.0000
     43 H13         4.3180   -6.6150   -4.7780 H         1 UNK         0.0000
     44 H14         4.3780   -3.2500   -4.2890 H         1 UNK         0.0000
     45 H15         2.6100   -7.6080   -3.3110 H         1 UNK         0.0000
     46 H16         0.8650   -9.0610   -4.2570 H         1 UNK         0.0000
     47 H17         6.7990   -5.6500   -3.2570 H         1 UNK         0.0000
     48 H18         4.4960   -1.4920   -3.5170 H         1 UNK         0.0000
     49 H19         8.2470   -3.4270    0.0700 H         1 UNK         0.0000
     50 H20         8.2340   -5.4570   -1.2720 H         1 UNK         0.0000
     51 H21         7.4000   -1.1380    0.4820 H         1 UNK         0.0000
     52 H22         4.5150    0.5340   -2.1620 H         1 UNK         0.0000
     53 H23         5.9570    0.7090   -0.1800 H         1 UNK         0.0000
     54 H24         0.6130  -10.6670   -6.6270 H         1 UNK         0.0000
     55 H25        -0.1050   -9.3320   -7.3520 H         1 UNK         0.0000
@<TRIPOS>BOND
     1    1   17 2
     2    2    3 1
     3    2   13 1
     4    2   14 1
     5    3    8 2
     6    4   13 1
     7    4   17 am
     8    4   41 1
     9    5   17 am
    10    5   18 1
    11    5   44 1
    12    6   20 1
    13    6   54 1
    14    6   55 1
    15    7    8 1
    16    7    9 1
    17    7   10 1
    18    7   11 1
    19    8   12 1
    20    9   31 1
    21    9   32 1
    22    9   33 1
    23   10   34 1
    24   10   35 1
    25   10   36 1
    26   11   37 1
    27   11   38 1
    28   11   39 1
    29   12   13 2
    30   12   40 1
    31   14   15 ar
    32   14   16 ar
    33   15   20 ar
    34   15   42 1
    35   16   22 ar
    36   16   43 1
    37   18   19 ar
    38   18   24 ar
    39   19   21 ar
    40   19   25 ar
    41   20   23 ar
    42   21   26 ar
    43   21   28 ar
    44   22   23 ar
    45   22   45 1
    46   23   46 1
    47   24   27 ar
    48   24   47 1
    49   25   29 ar
    50   25   48 1
    51   26   27 ar
    52   26   49 1
    53   27   50 1
    54   28   30 ar
    55   28   51 1
    56   29   30 ar
    57   29   52 1
    58   30   53 1
