@<TRIPOS>MOLECULE
25174101
   55    58     0     0     0
SMALL
NO_CHARGES

@<TRIPOS>ATOM
      1 O1          8.9640   -3.7940  -10.7330 O.2       1 UNK         0.0000
      2 N1          6.8890   -6.3560  -10.0710 N.pl3     1 UNK         0.0000
      3 N2          5.8420   -6.2520   -9.1470 N.2       1 UNK         0.0000
      4 N3          9.2990   -5.8730  -10.0300 N.am      1 UNK         0.0000
      5 N4         10.9340   -4.6990  -11.2120 N.am      1 UNK         0.0000
      6 N5          7.5040   -9.8480  -13.3480 N.pl3     1 UNK         0.0000
      7 C1          5.5380   -5.5180   -6.7690 C.3       1 UNK         0.0000
      8 C2          6.3270   -5.7830   -8.0250 C.2       1 UNK         0.0000
      9 C3          4.9120   -4.1240   -6.8440 C.3       1 UNK         0.0000
     10 C4          4.4340   -6.5670   -6.6280 C.3       1 UNK         0.0000
     11 C5          6.4700   -5.5930   -5.5570 C.3       1 UNK         0.0000
     12 C6          7.7000   -5.5770   -8.1880 C.2       1 UNK         0.0000
     13 C7          8.0280   -5.9300   -9.4600 C.2       1 UNK         0.0000
     14 C8          6.7830   -6.8170  -11.3910 C.ar      1 UNK         0.0000
     15 C9          7.2000   -8.1000  -11.7140 C.ar      1 UNK         0.0000
     16 C10         6.2650   -5.9870  -12.3780 C.ar      1 UNK         0.0000
     17 C11         9.7060   -4.7540  -10.6610 C.2       1 UNK         0.0000
     18 C12        11.4010   -3.5040  -11.7630 C.ar      1 UNK         0.0000
     19 C13        12.0750   -2.5630  -10.9560 C.ar      1 UNK         0.0000
     20 C14         7.0890   -8.5540  -13.0200 C.ar      1 UNK         0.0000
     21 C15        12.5380   -1.3560  -11.5370 C.ar      1 UNK         0.0000
     22 C16         6.1610   -6.4410  -13.6790 C.ar      1 UNK         0.0000
     23 C17         6.5700   -7.7190  -14.0030 C.ar      1 UNK         0.0000
     24 C18        11.2050   -3.2330  -13.1000 C.ar      1 UNK         0.0000
     25 C19        12.2950   -2.7990   -9.5910 C.ar      1 UNK         0.0000
     26 C20        12.3180   -1.1180  -12.9040 C.ar      1 UNK         0.0000
     27 C21        11.6640   -2.0430  -13.6580 C.ar      1 UNK         0.0000
     28 C22        13.2100   -0.4200  -10.7330 C.ar      1 UNK         0.0000
     29 C23        12.9500   -1.8700   -8.8410 C.ar      1 UNK         0.0000
     30 C24        13.4060   -0.6830   -9.4120 C.ar      1 UNK         0.0000
     31 H1          5.6580   -3.3760   -6.5760 H         1 UNK         0.0000
     32 H2          4.5600   -3.9380   -7.8600 H         1 UNK         0.0000
     33 H3          4.0720   -4.0640   -6.1530 H         1 UNK         0.0000
     34 H4          4.6580   -7.4190   -7.2710 H         1 UNK         0.0000
     35 H5          4.3780   -6.8990   -5.5920 H         1 UNK         0.0000
     36 H6          3.4790   -6.1310   -6.9220 H         1 UNK         0.0000
     37 H7          5.9460   -5.2300   -4.6730 H         1 UNK         0.0000
     38 H8          6.7760   -6.6280   -5.3970 H         1 UNK         0.0000
     39 H9          7.3500   -4.9770   -5.7360 H         1 UNK         0.0000
     40 H10         8.3790   -5.2000   -7.4370 H         1 UNK         0.0000
     41 H11         9.8920   -6.6400   -9.9720 H         1 UNK         0.0000
     42 H12         7.6070   -8.7450  -10.9490 H         1 UNK         0.0000
     43 H13         5.9450   -4.9870  -12.1270 H         1 UNK         0.0000
     44 H14        11.4950   -5.4900  -11.2260 H         1 UNK         0.0000
     45 H15         5.7580   -5.7940  -14.4440 H         1 UNK         0.0000
     46 H16         6.4870   -8.0710  -15.0210 H         1 UNK         0.0000
     47 H17        10.6890   -3.9500  -13.7200 H         1 UNK         0.0000
     48 H18        11.9470   -3.7160   -9.1360 H         1 UNK         0.0000
     49 H19        12.6650   -0.1990  -13.3550 H         1 UNK         0.0000
     50 H20        11.4990   -1.8510  -14.7090 H         1 UNK         0.0000
     51 H21        13.5700    0.5040  -11.1610 H         1 UNK         0.0000
     52 H22        13.1190   -2.0550   -7.7920 H         1 UNK         0.0000
     53 H23        13.9220    0.0390   -8.7960 H         1 UNK         0.0000
     54 H24         7.0610  -10.3320  -14.0630 H         1 UNK         0.0000
     55 H25         8.2350  -10.2600  -12.8630 H         1 UNK         0.0000
@<TRIPOS>BOND
     1    1   17 2
     2    2    3 1
     3    2   13 1
     4    2   14 1
     5    3    8 2
     6    4   13 1
     7    4   17 am
     8    4   41 1
     9    5   17 am
    10    5   18 1
    11    5   44 1
    12    6   20 1
    13    6   54 1
    14    6   55 1
    15    7    8 1
    16    7    9 1
    17    7   10 1
    18    7   11 1
    19    8   12 1
    20    9   31 1
    21    9   32 1
    22    9   33 1
    23   10   34 1
    24   10   35 1
    25   10   36 1
    26   11   37 1
    27   11   38 1
    28   11   39 1
    29   12   13 2
    30   12   40 1
    31   14   15 ar
    32   14   16 ar
    33   15   20 ar
    34   15   42 1
    35   16   22 ar
    36   16   43 1
    37   18   19 ar
    38   18   24 ar
    39   19   21 ar
    40   19   25 ar
    41   20   23 ar
    42   21   26 ar
    43   21   28 ar
    44   22   23 ar
    45   22   45 1
    46   23   46 1
    47   24   27 ar
    48   24   47 1
    49   25   29 ar
    50   25   48 1
    51   26   27 ar
    52   26   49 1
    53   27   50 1
    54   28   30 ar
    55   28   51 1
    56   29   30 ar
    57   29   52 1
    58   30   53 1
