@<TRIPOS>MOLECULE
25174101
   55    58     0     0     0
SMALL
NO_CHARGES

@<TRIPOS>ATOM
      1 O1          7.1770   -5.5510   -8.4140 O.2       1 UNK         0.0000
      2 N1          7.9640   -5.4960  -11.6160 N.pl3     1 UNK         0.0000
      3 N2          9.2740   -5.4360  -12.1060 N.2       1 UNK         0.0000
      4 N3          6.6300   -4.1510  -10.0490 N.am      1 UNK         0.0000
      5 N4          5.2610   -4.4530   -8.1830 N.am      1 UNK         0.0000
      6 N5          4.0160   -6.7810  -14.0820 N.pl3     1 UNK         0.0000
      7 C1         11.2920   -3.9760  -11.8220 C.3       1 UNK         0.0000
      8 C2          9.8710   -4.4040  -11.5650 C.2       1 UNK         0.0000
      9 C3         11.3690   -2.4480  -11.8360 C.3       1 UNK         0.0000
     10 C4         12.1980   -4.5220  -10.7170 C.3       1 UNK         0.0000
     11 C5         11.7530   -4.5220  -13.1750 C.3       1 UNK         0.0000
     12 C6          8.9640   -3.7640  -10.7160 C.2       1 UNK         0.0000
     13 C7          7.7930   -4.4560  -10.7560 C.2       1 UNK         0.0000
     14 C8          6.9990   -6.4560  -11.9530 C.ar      1 UNK         0.0000
     15 C9          5.9860   -6.1400  -12.8460 C.ar      1 UNK         0.0000
     16 C10         7.0550   -7.7250  -11.3880 C.ar      1 UNK         0.0000
     17 C11         6.3840   -4.7470   -8.8660 C.2       1 UNK         0.0000
     18 C12         5.0610   -4.9790   -6.9050 C.ar      1 UNK         0.0000
     19 C13         4.3970   -6.2130   -6.7380 C.ar      1 UNK         0.0000
     20 C14         5.0360   -7.0940  -13.1790 C.ar      1 UNK         0.0000
     21 C15         4.2050   -6.7270   -5.4320 C.ar      1 UNK         0.0000
     22 C16         6.1040   -8.6720  -11.7180 C.ar      1 UNK         0.0000
     23 C17         5.0970   -8.3620  -12.6110 C.ar      1 UNK         0.0000
     24 C18         5.5110   -4.2970   -5.7950 C.ar      1 UNK         0.0000
     25 C19         3.9240   -6.9400   -7.8410 C.ar      1 UNK         0.0000
     26 C20         4.6790   -6.0000   -4.3260 C.ar      1 UNK         0.0000
     27 C21         5.3150   -4.8120   -4.5170 C.ar      1 UNK         0.0000
     28 C22         3.5440   -7.9560   -5.2670 C.ar      1 UNK         0.0000
     29 C23         3.2880   -8.1280   -7.6440 C.ar      1 UNK         0.0000
     30 C24         3.0980   -8.6340   -6.3600 C.ar      1 UNK         0.0000
     31 H1         10.3680   -2.0330  -11.7150 H         1 UNK         0.0000
     32 H2         12.0040   -2.1080  -11.0160 H         1 UNK         0.0000
     33 H3         11.7890   -2.1130  -12.7830 H         1 UNK         0.0000
     34 H4         12.7800   -3.7070  -10.2870 H         1 UNK         0.0000
     35 H5         11.5880   -4.9830   -9.9410 H         1 UNK         0.0000
     36 H6         12.8730   -5.2680  -11.1370 H         1 UNK         0.0000
     37 H7         11.2200   -4.0070  -13.9750 H         1 UNK         0.0000
     38 H8         12.8250   -4.3560  -13.2890 H         1 UNK         0.0000
     39 H9         11.5420   -5.5890  -13.2280 H         1 UNK         0.0000
     40 H10         9.1600   -2.8780  -10.1300 H         1 UNK         0.0000
     41 H11         5.9980   -3.5100  -10.4100 H         1 UNK         0.0000
     42 H12         5.9390   -5.1530  -13.2820 H         1 UNK         0.0000
     43 H13         7.8410   -7.9690  -10.6890 H         1 UNK         0.0000
     44 H14         4.5900   -3.8750   -8.5790 H         1 UNK         0.0000
     45 H15         6.1490   -9.6570  -11.2780 H         1 UNK         0.0000
     46 H16         4.3560   -9.1040  -12.8680 H         1 UNK         0.0000
     47 H17         6.0190   -3.3520   -5.9190 H         1 UNK         0.0000
     48 H18         4.0640   -6.5590   -8.8430 H         1 UNK         0.0000
     49 H19         4.5330   -6.3820   -3.3260 H         1 UNK         0.0000
     50 H20         5.6750   -4.2590   -3.6610 H         1 UNK         0.0000
     51 H21         3.3910   -8.3610   -4.2770 H         1 UNK         0.0000
     52 H22         2.9250   -8.6850   -8.4950 H         1 UNK         0.0000
     53 H23         2.5900   -9.5780   -6.2300 H         1 UNK         0.0000
     54 H24         3.7400   -5.8580  -14.1990 H         1 UNK         0.0000
     55 H25         3.5860   -7.4850  -14.5900 H         1 UNK         0.0000
@<TRIPOS>BOND
     1    1   17 2
     2    2    3 1
     3    2   13 1
     4    2   14 1
     5    3    8 2
     6    4   13 1
     7    4   17 am
     8    4   41 1
     9    5   17 am
    10    5   18 1
    11    5   44 1
    12    6   20 1
    13    6   54 1
    14    6   55 1
    15    7    8 1
    16    7    9 1
    17    7   10 1
    18    7   11 1
    19    8   12 1
    20    9   31 1
    21    9   32 1
    22    9   33 1
    23   10   34 1
    24   10   35 1
    25   10   36 1
    26   11   37 1
    27   11   38 1
    28   11   39 1
    29   12   13 2
    30   12   40 1
    31   14   15 ar
    32   14   16 ar
    33   15   20 ar
    34   15   42 1
    35   16   22 ar
    36   16   43 1
    37   18   19 ar
    38   18   24 ar
    39   19   21 ar
    40   19   25 ar
    41   20   23 ar
    42   21   26 ar
    43   21   28 ar
    44   22   23 ar
    45   22   45 1
    46   23   46 1
    47   24   27 ar
    48   24   47 1
    49   25   29 ar
    50   25   48 1
    51   26   27 ar
    52   26   49 1
    53   27   50 1
    54   28   30 ar
    55   28   51 1
    56   29   30 ar
    57   29   52 1
    58   30   53 1
