@<TRIPOS>MOLECULE
25174101
   55    58     0     0     0
SMALL
NO_CHARGES

@<TRIPOS>ATOM
      1 O1          8.4720   -5.0290  -11.4460 O.2       1 UNK         0.0000
      2 N1         11.1690   -2.8770  -11.4990 N.pl3     1 UNK         0.0000
      3 N2         11.6780   -2.4320  -12.7250 N.2       1 UNK         0.0000
      4 N3          8.9250   -3.0650  -10.5130 N.am      1 UNK         0.0000
      5 N4          7.4170   -4.5630   -9.5490 N.am      1 UNK         0.0000
      6 N5         12.8310   -6.6110   -8.9300 N.pl3     1 UNK         0.0000
      7 C1         10.7820   -1.4920  -14.8700 C.3       1 UNK         0.0000
      8 C2         10.6760   -2.0410  -13.4710 C.2       1 UNK         0.0000
      9 C3         11.8520   -0.3980  -14.9080 C.3       1 UNK         0.0000
     10 C4         11.1680   -2.6160  -15.8330 C.3       1 UNK         0.0000
     11 C5          9.4340   -0.9020  -15.2900 C.3       1 UNK         0.0000
     12 C6          9.4910   -2.2270  -12.7530 C.2       1 UNK         0.0000
     13 C7          9.8160   -2.7370  -11.5350 C.2       1 UNK         0.0000
     14 C8         11.9200   -3.3760  -10.4250 C.ar      1 UNK         0.0000
     15 C9         11.9980   -4.7440  -10.2090 C.ar      1 UNK         0.0000
     16 C10        12.5820   -2.5000   -9.5730 C.ar      1 UNK         0.0000
     17 C11         8.2780   -4.2470  -10.5360 C.2       1 UNK         0.0000
     18 C12         6.8360   -5.8320   -9.5070 C.ar      1 UNK         0.0000
     19 C13         5.9210   -6.1640   -8.4870 C.ar      1 UNK         0.0000
     20 C14        12.7460   -5.2330   -9.1480 C.ar      1 UNK         0.0000
     21 C15         5.3450   -7.4590   -8.4650 C.ar      1 UNK         0.0000
     22 C16        13.3220   -2.9910   -8.5150 C.ar      1 UNK         0.0000
     23 C17        13.4060   -4.3520   -8.2990 C.ar      1 UNK         0.0000
     24 C18         7.1540   -6.7720  -10.4640 C.ar      1 UNK         0.0000
     25 C19         5.5700   -5.2370   -7.4930 C.ar      1 UNK         0.0000
     26 C20         5.6950   -8.3880   -9.4590 C.ar      1 UNK         0.0000
     27 C21         6.5820   -8.0410  -10.4320 C.ar      1 UNK         0.0000
     28 C22         4.4330   -7.7890   -7.4490 C.ar      1 UNK         0.0000
     29 C23         4.6820   -5.5910   -6.5230 C.ar      1 UNK         0.0000
     30 C24         4.1160   -6.8640   -6.5010 C.ar      1 UNK         0.0000
     31 H1         12.2070   -0.2040  -13.8960 H         1 UNK         0.0000
     32 H2         12.6860   -0.7270  -15.5290 H         1 UNK         0.0000
     33 H3         11.4260    0.5130  -15.3260 H         1 UNK         0.0000
     34 H4         10.5200   -3.4780  -15.6640 H         1 UNK         0.0000
     35 H5         11.0540   -2.2710  -16.8600 H         1 UNK         0.0000
     36 H6         12.2050   -2.9030  -15.6590 H         1 UNK         0.0000
     37 H7          9.4310   -0.7330  -16.3670 H         1 UNK         0.0000
     38 H8          8.6360   -1.5970  -15.0300 H         1 UNK         0.0000
     39 H9          9.2750    0.0440  -14.7740 H         1 UNK         0.0000
     40 H10         8.4940   -2.0010  -13.1040 H         1 UNK         0.0000
     41 H11         8.7700   -2.4410   -9.7860 H         1 UNK         0.0000
     42 H12        11.4800   -5.4250  -10.8680 H         1 UNK         0.0000
     43 H13        12.5170   -1.4350   -9.7390 H         1 UNK         0.0000
     44 H14         7.2000   -3.9090   -8.8660 H         1 UNK         0.0000
     45 H15        13.8360   -2.3090   -7.8540 H         1 UNK         0.0000
     46 H16        13.9850   -4.7330   -7.4710 H         1 UNK         0.0000
     47 H17         7.8540   -6.5220  -11.2470 H         1 UNK         0.0000
     48 H18         6.0020   -4.2470   -7.4990 H         1 UNK         0.0000
     49 H19         5.2640   -9.3790   -9.4480 H         1 UNK         0.0000
     50 H20         6.8460   -8.7620  -11.1920 H         1 UNK         0.0000
     51 H21         3.9840   -8.7710   -7.4190 H         1 UNK         0.0000
     52 H22         4.4140   -4.8760   -5.7610 H         1 UNK         0.0000
     53 H23         3.4150   -7.1200   -5.7200 H         1 UNK         0.0000
     54 H24        13.6010   -7.1060   -9.2510 H         1 UNK         0.0000
     55 H25        12.1200   -7.0710   -8.4560 H         1 UNK         0.0000
@<TRIPOS>BOND
     1    1   17 2
     2    2    3 1
     3    2   13 1
     4    2   14 1
     5    3    8 2
     6    4   13 1
     7    4   17 am
     8    4   41 1
     9    5   17 am
    10    5   18 1
    11    5   44 1
    12    6   20 1
    13    6   54 1
    14    6   55 1
    15    7    8 1
    16    7    9 1
    17    7   10 1
    18    7   11 1
    19    8   12 1
    20    9   31 1
    21    9   32 1
    22    9   33 1
    23   10   34 1
    24   10   35 1
    25   10   36 1
    26   11   37 1
    27   11   38 1
    28   11   39 1
    29   12   13 2
    30   12   40 1
    31   14   15 ar
    32   14   16 ar
    33   15   20 ar
    34   15   42 1
    35   16   22 ar
    36   16   43 1
    37   18   19 ar
    38   18   24 ar
    39   19   21 ar
    40   19   25 ar
    41   20   23 ar
    42   21   26 ar
    43   21   28 ar
    44   22   23 ar
    45   22   45 1
    46   23   46 1
    47   24   27 ar
    48   24   47 1
    49   25   29 ar
    50   25   48 1
    51   26   27 ar
    52   26   49 1
    53   27   50 1
    54   28   30 ar
    55   28   51 1
    56   29   30 ar
    57   29   52 1
    58   30   53 1
