@<TRIPOS>MOLECULE
25174101
   55    58     0     0     0
SMALL
NO_CHARGES

@<TRIPOS>ATOM
      1 O1          6.8490   -6.2650   -9.2540 O.2       1 UNK         0.0000
      2 N1          8.1080   -5.5430  -12.1040 N.pl3     1 UNK         0.0000
      3 N2          9.4610   -5.3670  -12.4210 N.2       1 UNK         0.0000
      4 N3          6.5370   -4.4820  -10.5400 N.am      1 UNK         0.0000
      5 N4          4.9190   -5.1920   -9.0140 N.am      1 UNK         0.0000
      6 N5          3.9700   -6.5790  -14.3650 N.pl3     1 UNK         0.0000
      7 C1         11.3550   -3.8900  -11.6990 C.3       1 UNK         0.0000
      8 C2          9.9380   -4.4010  -11.6760 C.2       1 UNK         0.0000
      9 C3         11.3550   -2.3800  -11.4520 C.3       1 UNK         0.0000
     10 C4         12.1670   -4.5870  -10.6070 C.3       1 UNK         0.0000
     11 C5         11.9800   -4.1830  -13.0650 C.3       1 UNK         0.0000
     12 C6          8.9080   -3.9200  -10.8630 C.2       1 UNK         0.0000
     13 C7          7.7870   -4.6420  -11.1370 C.2       1 UNK         0.0000
     14 C8          7.2400   -6.4800  -12.6820 C.ar      1 UNK         0.0000
     15 C9          6.0360   -6.0640  -13.2310 C.ar      1 UNK         0.0000
     16 C10         7.5820   -7.8260  -12.6990 C.ar      1 UNK         0.0000
     17 C11         6.1270   -5.3460   -9.5900 C.2       1 UNK         0.0000
     18 C12         4.5430   -6.0140   -7.9500 C.ar      1 UNK         0.0000
     19 C13         4.7420   -5.5930   -6.6180 C.ar      1 UNK         0.0000
     20 C14         5.1820   -6.9940  -13.8060 C.ar      1 UNK         0.0000
     21 C15         4.3520   -6.4440   -5.5550 C.ar      1 UNK         0.0000
     22 C16         6.7270   -8.7510  -13.2680 C.ar      1 UNK         0.0000
     23 C17         5.5300   -8.3400  -13.8210 C.ar      1 UNK         0.0000
     24 C18         3.9730   -7.2450   -8.1920 C.ar      1 UNK         0.0000
     25 C19         5.3180   -4.3470   -6.3270 C.ar      1 UNK         0.0000
     26 C20         3.7750   -7.6930   -5.8450 C.ar      1 UNK         0.0000
     27 C21         3.5950   -8.0740   -7.1390 C.ar      1 UNK         0.0000
     28 C22         4.5500   -6.0240   -4.2290 C.ar      1 UNK         0.0000
     29 C23         5.4950   -3.9710   -5.0300 C.ar      1 UNK         0.0000
     30 C24         5.1130   -4.8090   -3.9840 C.ar      1 UNK         0.0000
     31 H1         10.3550   -2.0590  -11.1610 H         1 UNK         0.0000
     32 H2         12.0600   -2.1420  -10.6530 H         1 UNK         0.0000
     33 H3         11.6520   -1.8620  -12.3630 H         1 UNK         0.0000
     34 H4         13.1130   -4.9340  -11.0240 H         1 UNK         0.0000
     35 H5         12.3630   -3.8860   -9.7960 H         1 UNK         0.0000
     36 H6         11.6050   -5.4380  -10.2230 H         1 UNK         0.0000
     37 H7         12.6820   -3.3890  -13.3220 H         1 UNK         0.0000
     38 H8         12.5090   -5.1360  -13.0260 H         1 UNK         0.0000
     39 H9         11.1970   -4.2330  -13.8210 H         1 UNK         0.0000
     40 H10         8.9890   -3.1200  -10.1420 H         1 UNK         0.0000
     41 H11         5.9610   -3.7480  -10.8080 H         1 UNK         0.0000
     42 H12         5.7670   -5.0190  -13.2150 H         1 UNK         0.0000
     43 H13         8.5180   -8.1500  -12.2670 H         1 UNK         0.0000
     44 H14         4.3110   -4.5090   -9.3380 H         1 UNK         0.0000
     45 H15         6.9950   -9.7970  -13.2800 H         1 UNK         0.0000
     46 H16         4.8640   -9.0650  -14.2640 H         1 UNK         0.0000
     47 H17         3.8190   -7.5720   -9.2100 H         1 UNK         0.0000
     48 H18         5.6190   -3.6880   -7.1290 H         1 UNK         0.0000
     49 H19         3.4780   -8.3500   -5.0410 H         1 UNK         0.0000
     50 H20         3.1510   -9.0350   -7.3530 H         1 UNK         0.0000
     51 H21         4.2580   -6.6620   -3.4080 H         1 UNK         0.0000
     52 H22         5.9380   -3.0120   -4.8100 H         1 UNK         0.0000
     53 H23         5.2640   -4.4880   -2.9640 H         1 UNK         0.0000
     54 H24         3.4210   -7.2110  -14.8550 H         1 UNK         0.0000
     55 H25         3.6790   -5.6600  -14.2610 H         1 UNK         0.0000
@<TRIPOS>BOND
     1    1   17 2
     2    2    3 1
     3    2   13 1
     4    2   14 1
     5    3    8 2
     6    4   13 1
     7    4   17 am
     8    4   41 1
     9    5   17 am
    10    5   18 1
    11    5   44 1
    12    6   20 1
    13    6   54 1
    14    6   55 1
    15    7    8 1
    16    7    9 1
    17    7   10 1
    18    7   11 1
    19    8   12 1
    20    9   31 1
    21    9   32 1
    22    9   33 1
    23   10   34 1
    24   10   35 1
    25   10   36 1
    26   11   37 1
    27   11   38 1
    28   11   39 1
    29   12   13 2
    30   12   40 1
    31   14   15 ar
    32   14   16 ar
    33   15   20 ar
    34   15   42 1
    35   16   22 ar
    36   16   43 1
    37   18   19 ar
    38   18   24 ar
    39   19   21 ar
    40   19   25 ar
    41   20   23 ar
    42   21   26 ar
    43   21   28 ar
    44   22   23 ar
    45   22   45 1
    46   23   46 1
    47   24   27 ar
    48   24   47 1
    49   25   29 ar
    50   25   48 1
    51   26   27 ar
    52   26   49 1
    53   27   50 1
    54   28   30 ar
    55   28   51 1
    56   29   30 ar
    57   29   52 1
    58   30   53 1
