@<TRIPOS>MOLECULE
10302451
   70    75     0     0     0
SMALL
NO_CHARGES

@<TRIPOS>ATOM
      1 Cl1         9.3940   -6.7370   -9.2220 Cl        1 UNK         0.0000
      2 O1          6.5590   -4.8290   -8.5320 O.3       1 UNK         0.0000
      3 O2          6.0330   -4.5690   -4.4310 O.3       1 UNK         0.0000
      4 O3          2.9760   -7.4740  -10.1910 O.3       1 UNK         0.0000
      5 O4         10.2660   -1.8190  -10.7560 O.3       1 UNK         0.0000
      6 O5         12.5200   -1.9820  -10.6060 O.3       1 UNK         0.0000
      7 N1          2.7620   -8.9480   -8.0460 N.3       1 UNK         0.0000
      8 N2          2.1950   -8.5940   -5.2790 N.3       1 UNK         0.0000
      9 N3          8.3970   -4.0830  -10.1140 N.pl3     1 UNK         0.0000
     10 N4          6.4380   -6.0590  -13.1380 N.ar      1 UNK         0.0000
     11 N5          8.1960   -4.7710  -12.3580 N.ar      1 UNK         0.0000
     12 C1          3.8370   -8.6380   -7.0930 C.3       1 UNK         0.0000
     13 C2          1.6910   -9.7150   -7.3960 C.3       1 UNK         0.0000
     14 C3          3.2660   -7.8260   -5.9290 C.3       1 UNK         0.0000
     15 C4          1.1190   -8.9030   -6.2320 C.3       1 UNK         0.0000
     16 C5          3.2860   -9.6640   -9.2170 C.3       1 UNK         0.0000
     17 C6          6.1290   -5.1730   -7.2130 C.3       1 UNK         0.0000
     18 C7          7.3500   -5.3410   -6.3040 C.3       1 UNK         0.0000
     19 C8          5.2410   -4.0560   -6.6560 C.3       1 UNK         0.0000
     20 C9          2.9630   -8.8720  -10.4860 C.3       1 UNK         0.0000
     21 C10         1.6700   -7.8780   -4.1080 C.3       1 UNK         0.0000
     22 C11         6.8780   -5.6310   -4.8760 C.3       1 UNK         0.0000
     23 C12         4.8500   -4.3960   -5.2150 C.3       1 UNK         0.0000
     24 C13         5.9500   -5.4670   -9.5640 C.ar      1 UNK         0.0000
     25 C14         4.1380   -6.8080  -10.4150 C.ar      1 UNK         0.0000
     26 C15         6.5180   -5.4350  -10.8490 C.ar      1 UNK         0.0000
     27 C16         4.7700   -6.1490   -9.3600 C.ar      1 UNK         0.0000
     28 C17         5.8750   -6.1040  -11.9200 C.ar      1 UNK         0.0000
     29 C18         4.6810   -6.7940  -11.6840 C.ar      1 UNK         0.0000
     30 C19         7.7250   -4.7510  -11.1160 C.ar      1 UNK         0.0000
     31 C20         9.7920   -4.1760  -10.0230 C.ar      1 UNK         0.0000
     32 C21         7.5620   -5.4090  -13.3280 C.ar      1 UNK         0.0000
     33 C22        10.5870   -3.0800  -10.3440 C.ar      1 UNK         0.0000
     34 C23        11.9700   -3.1790  -10.2460 C.ar      1 UNK         0.0000
     35 C24        10.3830   -5.3670   -9.6160 C.ar      1 UNK         0.0000
     36 C25        12.5520   -4.3710   -9.8390 C.ar      1 UNK         0.0000
     37 C26        11.7600   -5.4580   -9.5260 C.ar      1 UNK         0.0000
     38 C27        11.4450   -1.0260  -10.5260 C.3       1 UNK         0.0000
     39 H1          4.6120   -8.0580   -7.5950 H         1 UNK         0.0000
     40 H2          4.2650   -9.5660   -6.7140 H         1 UNK         0.0000
     41 H3          2.0950  -10.6560   -7.0200 H         1 UNK         0.0000
     42 H4          0.9010   -9.9210   -8.1180 H         1 UNK         0.0000
     43 H5          2.8620   -6.8850   -6.3060 H         1 UNK         0.0000
     44 H6          4.0550   -7.6200   -5.2070 H         1 UNK         0.0000
     45 H7          0.3440   -9.4830   -5.7290 H         1 UNK         0.0000
     46 H8          0.6910   -7.9750   -6.6110 H         1 UNK         0.0000
     47 H9          4.3670   -9.7730   -9.1220 H         1 UNK         0.0000
     48 H10         2.8250  -10.6490   -9.2760 H         1 UNK         0.0000
     49 H11         5.5660   -6.1070   -7.2440 H         1 UNK         0.0000
     50 H12         7.9600   -6.1710   -6.6620 H         1 UNK         0.0000
     51 H13         7.9400   -4.4240   -6.3130 H         1 UNK         0.0000
     52 H14         5.7890   -3.1140   -6.6720 H         1 UNK         0.0000
     53 H15         4.3420   -3.9680   -7.2650 H         1 UNK         0.0000
     54 H16         3.7100   -9.0890  -11.2490 H         1 UNK         0.0000
     55 H17         1.9770   -9.1580  -10.8510 H         1 UNK         0.0000
     56 H18         1.0030   -8.5350   -3.5500 H         1 UNK         0.0000
     57 H19         2.4980   -7.5730   -3.4680 H         1 UNK         0.0000
     58 H20         1.1210   -6.9960   -4.4370 H         1 UNK         0.0000
     59 H21         6.3230   -6.5700   -4.8610 H         1 UNK         0.0000
     60 H22         7.7420   -5.7100   -4.2160 H         1 UNK         0.0000
     61 H23         4.2690   -5.3180   -5.2040 H         1 UNK         0.0000
     62 H24         4.2530   -3.5840   -4.7990 H         1 UNK         0.0000
     63 H25         4.3310   -6.1740   -8.3730 H         1 UNK         0.0000
     64 H26         4.1850   -7.3110  -12.4920 H         1 UNK         0.0000
     65 H27         7.9040   -3.5490   -9.4720 H         1 UNK         0.0000
     66 H28         7.9870   -5.3920  -14.3210 H         1 UNK         0.0000
     67 H29        13.6260   -4.4480   -9.7680 H         1 UNK         0.0000
     68 H30        12.2180   -6.3840   -9.2090 H         1 UNK         0.0000
     69 H31        11.4120   -0.5690   -9.5370 H         1 UNK         0.0000
     70 H32        11.5530   -0.2630  -11.2960 H         1 UNK         0.0000
@<TRIPOS>BOND
     1    1   35 1
     2    2   17 1
     3    2   24 1
     4    3   22 1
     5    3   23 1
     6    4   20 1
     7    4   25 1
     8    5   33 1
     9    5   38 1
    10    6   34 1
    11    6   38 1
    12    7   12 1
    13    7   13 1
    14    7   16 1
    15    8   14 1
    16    8   15 1
    17    8   21 1
    18    9   30 1
    19    9   31 1
    20    9   65 1
    21   10   28 ar
    22   10   32 ar
    23   11   30 ar
    24   11   32 ar
    25   12   14 1
    26   12   39 1
    27   12   40 1
    28   13   15 1
    29   13   41 1
    30   13   42 1
    31   14   43 1
    32   14   44 1
    33   15   45 1
    34   15   46 1
    35   16   20 1
    36   16   47 1
    37   16   48 1
    38   17   18 1
    39   17   19 1
    40   17   49 1
    41   18   22 1
    42   18   50 1
    43   18   51 1
    44   19   23 1
    45   19   52 1
    46   19   53 1
    47   20   54 1
    48   20   55 1
    49   21   56 1
    50   21   57 1
    51   21   58 1
    52   22   59 1
    53   22   60 1
    54   23   61 1
    55   23   62 1
    56   24   26 ar
    57   24   27 ar
    58   25   27 ar
    59   25   29 ar
    60   26   28 ar
    61   26   30 ar
    62   27   63 1
    63   28   29 ar
    64   29   64 1
    65   31   33 ar
    66   31   35 ar
    67   32   66 1
    68   33   34 ar
    69   34   36 ar
    70   35   37 ar
    71   36   37 ar
    72   36   67 1
    73   37   68 1
    74   38   69 1
    75   38   70 1
