@<TRIPOS>MOLECULE
10302451
   70    75     0     0     0
SMALL
NO_CHARGES

@<TRIPOS>ATOM
      1 Cl1        11.7890   -5.2390  -14.6070 Cl        1 UNK         0.0000
      2 O1          7.7850   -4.3700  -12.1350 O.3       1 UNK         0.0000
      3 O2          7.4060   -7.1120  -15.2170 O.3       1 UNK         0.0000
      4 O3          5.4820   -5.7620   -8.2190 O.3       1 UNK         0.0000
      5 O4         11.0160   -1.8630  -10.6950 O.3       1 UNK         0.0000
      6 O5         12.6740   -0.4610  -11.3390 O.3       1 UNK         0.0000
      7 N1          5.2780   -5.2810   -4.5950 N.3       1 UNK         0.0000
      8 N2          6.6440   -3.4290   -2.9180 N.3       1 UNK         0.0000
      9 N3         10.3230   -4.3900  -12.1650 N.pl3     1 UNK         0.0000
     10 N4         10.2420   -5.7910   -8.3030 N.ar      1 UNK         0.0000
     11 N5         11.3910   -5.1180  -10.1960 N.ar      1 UNK         0.0000
     12 C1          5.0100   -3.8390   -4.6940 C.3       1 UNK         0.0000
     13 C2          6.6650   -5.5290   -4.1770 C.3       1 UNK         0.0000
     14 C3          5.2560   -3.1820   -3.3350 C.3       1 UNK         0.0000
     15 C4          6.9120   -4.8710   -2.8180 C.3       1 UNK         0.0000
     16 C5          4.9810   -5.9610   -5.8630 C.3       1 UNK         0.0000
     17 C6          7.1650   -5.2050  -13.1150 C.3       1 UNK         0.0000
     18 C7          7.6640   -4.8160  -14.5100 C.3       1 UNK         0.0000
     19 C8          7.5270   -6.6680  -12.8440 C.3       1 UNK         0.0000
     20 C9          5.2480   -5.0060   -7.0280 C.3       1 UNK         0.0000
     21 C10         6.9420   -2.7500   -1.6500 C.3       1 UNK         0.0000
     22 C11         7.0560   -5.7660  -15.5450 C.3       1 UNK         0.0000
     23 C12         6.9240   -7.5470  -13.9440 C.3       1 UNK         0.0000
     24 C13         7.8110   -4.8330  -10.8590 C.ar      1 UNK         0.0000
     25 C14         6.6540   -5.5400   -8.8690 C.ar      1 UNK         0.0000
     26 C15         9.0390   -5.0800  -10.2220 C.ar      1 UNK         0.0000
     27 C16         6.6350   -5.0650  -10.1800 C.ar      1 UNK         0.0000
     28 C17         9.0570   -5.5630   -8.8900 C.ar      1 UNK         0.0000
     29 C18         7.8480   -5.7850   -8.2210 C.ar      1 UNK         0.0000
     30 C19        10.2760   -4.8610  -10.8690 C.ar      1 UNK         0.0000
     31 C20        11.3470   -3.5190  -12.5570 C.ar      1 UNK         0.0000
     32 C21        11.3610   -5.5690   -8.9530 C.ar      1 UNK         0.0000
     33 C22        11.6000   -2.3650  -11.8220 C.ar      1 UNK         0.0000
     34 C23        12.6220   -1.5070  -12.2150 C.ar      1 UNK         0.0000
     35 C24        12.1080   -3.8040  -13.6850 C.ar      1 UNK         0.0000
     36 C25        13.3770   -1.7990  -13.3410 C.ar      1 UNK         0.0000
     37 C26        13.1190   -2.9440  -14.0720 C.ar      1 UNK         0.0000
     38 C27        11.9490   -0.8990  -10.1740 C.3       1 UNK         0.0000
     39 H1          3.9730   -3.6820   -4.9920 H         1 UNK         0.0000
     40 H2          5.6730   -3.3970   -5.4380 H         1 UNK         0.0000
     41 H3          7.3470   -5.1050   -4.9150 H         1 UNK         0.0000
     42 H4          6.8350   -6.6020   -4.0990 H         1 UNK         0.0000
     43 H5          4.5740   -3.6060   -2.5970 H         1 UNK         0.0000
     44 H6          5.0860   -2.1090   -3.4130 H         1 UNK         0.0000
     45 H7          7.9480   -5.0290   -2.5200 H         1 UNK         0.0000
     46 H8          6.2480   -5.3140   -2.0740 H         1 UNK         0.0000
     47 H9          5.6170   -6.8400   -5.9610 H         1 UNK         0.0000
     48 H10         3.9350   -6.2650   -5.8750 H         1 UNK         0.0000
     49 H11         6.0820   -5.0810  -13.0680 H         1 UNK         0.0000
     50 H12         7.3620   -3.7930  -14.7330 H         1 UNK         0.0000
     51 H13         8.7510   -4.8900  -14.5420 H         1 UNK         0.0000
     52 H14         8.6120   -6.7800  -12.8430 H         1 UNK         0.0000
     53 H15         7.1270   -6.9700  -11.8770 H         1 UNK         0.0000
     54 H16         4.3840   -4.3590   -7.1730 H         1 UNK         0.0000
     55 H17         6.1240   -4.3970   -6.8060 H         1 UNK         0.0000
     56 H18         6.7590   -3.4320   -0.8210 H         1 UNK         0.0000
     57 H19         7.9870   -2.4410   -1.6410 H         1 UNK         0.0000
     58 H20         6.3020   -1.8730   -1.5480 H         1 UNK         0.0000
     59 H21         5.9700   -5.6610  -15.5410 H         1 UNK         0.0000
     60 H22         7.4410   -5.5210  -16.5340 H         1 UNK         0.0000
     61 H23         5.8370   -7.4650  -13.9190 H         1 UNK         0.0000
     62 H24         7.2140   -8.5850  -13.7800 H         1 UNK         0.0000
     63 H25         5.6900   -4.8770  -10.6680 H         1 UNK         0.0000
     64 H26         7.8500   -6.1490   -7.2040 H         1 UNK         0.0000
     65 H27         9.6460   -4.6620  -12.8040 H         1 UNK         0.0000
     66 H28        12.2970   -5.7630   -8.4510 H         1 UNK         0.0000
     67 H29        14.1660   -1.1300  -13.6480 H         1 UNK         0.0000
     68 H30        13.7100   -3.1670  -14.9480 H         1 UNK         0.0000
     69 H31        12.6240   -1.3670   -9.4570 H         1 UNK         0.0000
     70 H32        11.4230   -0.0630   -9.7130 H         1 UNK         0.0000
@<TRIPOS>BOND
     1    1   35 1
     2    2   17 1
     3    2   24 1
     4    3   22 1
     5    3   23 1
     6    4   20 1
     7    4   25 1
     8    5   33 1
     9    5   38 1
    10    6   34 1
    11    6   38 1
    12    7   12 1
    13    7   13 1
    14    7   16 1
    15    8   14 1
    16    8   15 1
    17    8   21 1
    18    9   30 1
    19    9   31 1
    20    9   65 1
    21   10   28 ar
    22   10   32 ar
    23   11   30 ar
    24   11   32 ar
    25   12   14 1
    26   12   39 1
    27   12   40 1
    28   13   15 1
    29   13   41 1
    30   13   42 1
    31   14   43 1
    32   14   44 1
    33   15   45 1
    34   15   46 1
    35   16   20 1
    36   16   47 1
    37   16   48 1
    38   17   18 1
    39   17   19 1
    40   17   49 1
    41   18   22 1
    42   18   50 1
    43   18   51 1
    44   19   23 1
    45   19   52 1
    46   19   53 1
    47   20   54 1
    48   20   55 1
    49   21   56 1
    50   21   57 1
    51   21   58 1
    52   22   59 1
    53   22   60 1
    54   23   61 1
    55   23   62 1
    56   24   26 ar
    57   24   27 ar
    58   25   27 ar
    59   25   29 ar
    60   26   28 ar
    61   26   30 ar
    62   27   63 1
    63   28   29 ar
    64   29   64 1
    65   31   33 ar
    66   31   35 ar
    67   32   66 1
    68   33   34 ar
    69   34   36 ar
    70   35   37 ar
    71   36   37 ar
    72   36   67 1
    73   37   68 1
    74   38   69 1
    75   38   70 1
