@<TRIPOS>MOLECULE
10302451
   70    75     0     0     0
SMALL
NO_CHARGES

@<TRIPOS>ATOM
      1 Cl1        10.7360   -1.4500  -10.7370 Cl        1 UNK         0.0000
      2 O1          7.0880   -4.9120   -8.8330 O.3       1 UNK         0.0000
      3 O2          5.6240   -4.4990   -4.9800 O.3       1 UNK         0.0000
      4 O3          3.8800   -7.5490  -11.1440 O.3       1 UNK         0.0000
      5 O4          9.8720   -6.2940   -8.9820 O.3       1 UNK         0.0000
      6 O5         12.0440   -6.6940   -8.4830 O.3       1 UNK         0.0000
      7 N1          3.1030   -9.0280   -7.8700 N.3       1 UNK         0.0000
      8 N2          1.8400   -8.0370   -5.5190 N.3       1 UNK         0.0000
      9 N3          8.8920   -3.7040  -10.1480 N.pl3     1 UNK         0.0000
     10 N4          7.2750   -5.2720  -13.5850 N.ar      1 UNK         0.0000
     11 N5          8.8510   -3.9810  -12.4870 N.ar      1 UNK         0.0000
     12 C1          1.6670   -9.2420   -7.6430 C.3       1 UNK         0.0000
     13 C2          3.5500   -7.7720   -7.2500 C.3       1 UNK         0.0000
     14 C3          1.3930   -9.2920   -6.1390 C.3       1 UNK         0.0000
     15 C4          3.2760   -7.8230   -5.7460 C.3       1 UNK         0.0000
     16 C5          3.4190   -9.0480   -9.3050 C.3       1 UNK         0.0000
     17 C6          6.3570   -5.2040   -7.6410 C.3       1 UNK         0.0000
     18 C7          7.3290   -5.3490   -6.4660 C.3       1 UNK         0.0000
     19 C8          5.3810   -4.0610   -7.3440 C.3       1 UNK         0.0000
     20 C9          3.1900   -7.6560   -9.8970 C.3       1 UNK         0.0000
     21 C10         1.5250   -8.0160   -4.0850 C.3       1 UNK         0.0000
     22 C11         6.5320   -5.5830   -5.1800 C.3       1 UNK         0.0000
     23 C12         4.6600   -4.3450   -6.0240 C.3       1 UNK         0.0000
     24 C13         6.5910   -5.4050   -9.9960 C.ar      1 UNK         0.0000
     25 C14         4.9700   -6.7390  -11.1780 C.ar      1 UNK         0.0000
     26 C15         7.2000   -5.0780  -11.2200 C.ar      1 UNK         0.0000
     27 C16         5.4860   -6.2280   -9.9870 C.ar      1 UNK         0.0000
     28 C17         6.6750   -5.5980  -12.4290 C.ar      1 UNK         0.0000
     29 C18         5.5550   -6.4360  -12.3910 C.ar      1 UNK         0.0000
     30 C19         8.3340   -4.2390  -11.2910 C.ar      1 UNK         0.0000
     31 C20        10.2340   -3.9580   -9.8380 C.ar      1 UNK         0.0000
     32 C21         8.3270   -4.4870  -13.5910 C.ar      1 UNK         0.0000
     33 C22        10.6040   -5.1850   -9.2950 C.ar      1 UNK         0.0000
     34 C23        11.9380   -5.4320   -8.9940 C.ar      1 UNK         0.0000
     35 C24        11.1970   -2.9830  -10.0670 C.ar      1 UNK         0.0000
     36 C25        12.8930   -4.4530   -9.2260 C.ar      1 UNK         0.0000
     37 C26        12.5220   -3.2340   -9.7600 C.ar      1 UNK         0.0000
     38 C27        10.8260   -7.3650   -8.8600 C.3       1 UNK         0.0000
     39 H1          1.3640  -10.1840   -8.1000 H         1 UNK         0.0000
     40 H2          1.1030   -8.4230   -8.0880 H         1 UNK         0.0000
     41 H3          3.0070   -6.9360   -7.6920 H         1 UNK         0.0000
     42 H4          4.6190   -7.6420   -7.4210 H         1 UNK         0.0000
     43 H5          1.9370  -10.1290   -5.6980 H         1 UNK         0.0000
     44 H6          0.3250   -9.4220   -5.9680 H         1 UNK         0.0000
     45 H7          3.5800   -6.8810   -5.2890 H         1 UNK         0.0000
     46 H8          3.8410   -8.6420   -5.3000 H         1 UNK         0.0000
     47 H9          4.4620   -9.3340   -9.4430 H         1 UNK         0.0000
     48 H10         2.7750   -9.7670   -9.8080 H         1 UNK         0.0000
     49 H11         5.8010   -6.1340   -7.7710 H         1 UNK         0.0000
     50 H12         7.9910   -6.1970   -6.6440 H         1 UNK         0.0000
     51 H13         7.9200   -4.4390   -6.3680 H         1 UNK         0.0000
     52 H14         5.9340   -3.1240   -7.2640 H         1 UNK         0.0000
     53 H15         4.6510   -3.9870   -8.1490 H         1 UNK         0.0000
     54 H16         2.1240   -7.5000  -10.0580 H         1 UNK         0.0000
     55 H17         3.5670   -6.9010   -9.2070 H         1 UNK         0.0000
     56 H18         2.4350   -7.8320   -3.5160 H         1 UNK         0.0000
     57 H19         0.8040   -7.2230   -3.8830 H         1 UNK         0.0000
     58 H20         1.0990   -8.9760   -3.7920 H         1 UNK         0.0000
     59 H21         5.9730   -6.5160   -5.2630 H         1 UNK         0.0000
     60 H22         7.2170   -5.6450   -4.3340 H         1 UNK         0.0000
     61 H23         4.0770   -5.2610   -6.1190 H         1 UNK         0.0000
     62 H24         3.9960   -3.5130   -5.7860 H         1 UNK         0.0000
     63 H25         5.0150   -6.4800   -9.0480 H         1 UNK         0.0000
     64 H26         5.1490   -6.8410  -13.3050 H         1 UNK         0.0000
     65 H27         8.3530   -3.1530   -9.5580 H         1 UNK         0.0000
     66 H28         8.7850   -4.2450  -14.5380 H         1 UNK         0.0000
     67 H29        13.9280   -4.6430   -8.9870 H         1 UNK         0.0000
     68 H30        13.2680   -2.4750   -9.9390 H         1 UNK         0.0000
     69 H31        10.9520   -7.8770   -9.8140 H         1 UNK         0.0000
     70 H32        10.5210   -8.0670   -8.0860 H         1 UNK         0.0000
@<TRIPOS>BOND
     1    1   35 1
     2    2   17 1
     3    2   24 1
     4    3   22 1
     5    3   23 1
     6    4   20 1
     7    4   25 1
     8    5   33 1
     9    5   38 1
    10    6   34 1
    11    6   38 1
    12    7   12 1
    13    7   13 1
    14    7   16 1
    15    8   14 1
    16    8   15 1
    17    8   21 1
    18    9   30 1
    19    9   31 1
    20    9   65 1
    21   10   28 ar
    22   10   32 ar
    23   11   30 ar
    24   11   32 ar
    25   12   14 1
    26   12   39 1
    27   12   40 1
    28   13   15 1
    29   13   41 1
    30   13   42 1
    31   14   43 1
    32   14   44 1
    33   15   45 1
    34   15   46 1
    35   16   20 1
    36   16   47 1
    37   16   48 1
    38   17   18 1
    39   17   19 1
    40   17   49 1
    41   18   22 1
    42   18   50 1
    43   18   51 1
    44   19   23 1
    45   19   52 1
    46   19   53 1
    47   20   54 1
    48   20   55 1
    49   21   56 1
    50   21   57 1
    51   21   58 1
    52   22   59 1
    53   22   60 1
    54   23   61 1
    55   23   62 1
    56   24   26 ar
    57   24   27 ar
    58   25   27 ar
    59   25   29 ar
    60   26   28 ar
    61   26   30 ar
    62   27   63 1
    63   28   29 ar
    64   29   64 1
    65   31   33 ar
    66   31   35 ar
    67   32   66 1
    68   33   34 ar
    69   34   36 ar
    70   35   37 ar
    71   36   37 ar
    72   36   67 1
    73   37   68 1
    74   38   69 1
    75   38   70 1
