@<TRIPOS>MOLECULE
10302451
   70    75     0     0     0
SMALL
NO_CHARGES

@<TRIPOS>ATOM
      1 Cl1         6.9190   -7.1460   -3.5620 Cl        1 UNK         0.0000
      2 O1          5.8170   -5.6990   -7.1720 O.3       1 UNK         0.0000
      3 O2          8.5220   -4.5230  -10.0810 O.3       1 UNK         0.0000
      4 O3          3.3010   -9.2720   -9.0390 O.3       1 UNK         0.0000
      5 O4          5.2730   -2.1880   -3.6080 O.3       1 UNK         0.0000
      6 O5          6.3950   -1.6090   -1.7280 O.3       1 UNK         0.0000
      7 N1          4.6120   -8.5580  -12.3650 N.3       1 UNK         0.0000
      8 N2          6.3490   -6.6450  -13.5620 N.3       1 UNK         0.0000
      9 N3          5.3440   -4.9470   -4.7940 N.pl3     1 UNK         0.0000
     10 N4          2.4350   -7.8420   -4.5810 N.ar      1 UNK         0.0000
     11 N5          3.6440   -6.1040   -3.6450 N.ar      1 UNK         0.0000
     12 C1          5.9470   -8.9490  -12.8390 C.3       1 UNK         0.0000
     13 C2          4.6030   -7.1560  -11.9240 C.3       1 UNK         0.0000
     14 C3          6.3580   -8.0470  -14.0040 C.3       1 UNK         0.0000
     15 C4          5.0140   -6.2530  -13.0890 C.3       1 UNK         0.0000
     16 C5          4.1500   -9.4500  -11.2940 C.3       1 UNK         0.0000
     17 C6          6.6410   -5.7630   -8.3380 C.3       1 UNK         0.0000
     18 C7          6.2340   -4.6560   -9.3140 C.3       1 UNK         0.0000
     19 C8          8.1070   -5.5660   -7.9400 C.3       1 UNK         0.0000
     20 C9          3.2490   -8.6710  -10.3340 C.3       1 UNK         0.0000
     21 C10         6.8110   -5.7520  -14.6330 C.3       1 UNK         0.0000
     22 C11         7.1730   -4.6820  -10.5240 C.3       1 UNK         0.0000
     23 C12         8.9730   -5.5560   -9.2030 C.3       1 UNK         0.0000
     24 C13         4.8460   -6.6400   -7.0520 C.ar      1 UNK         0.0000
     25 C14         3.5650   -8.4520   -7.9880 C.ar      1 UNK         0.0000
     26 C15         4.1240   -6.7610   -5.8520 C.ar      1 UNK         0.0000
     27 C16         4.5620   -7.4840   -8.1030 C.ar      1 UNK         0.0000
     28 C17         3.1120   -7.7460   -5.7360 C.ar      1 UNK         0.0000
     29 C18         2.8390   -8.5860   -6.8210 C.ar      1 UNK         0.0000
     30 C19         4.3720   -5.9250   -4.7410 C.ar      1 UNK         0.0000
     31 C20         6.0360   -4.5830   -3.6320 C.ar      1 UNK         0.0000
     32 C21         2.7090   -7.0370   -3.5810 C.ar      1 UNK         0.0000
     33 C22         5.9530   -3.2800   -3.1510 C.ar      1 UNK         0.0000
     34 C23         6.6380   -2.9260   -1.9940 C.ar      1 UNK         0.0000
     35 C24         6.8100   -5.5220   -2.9600 C.ar      1 UNK         0.0000
     36 C25         7.4080   -3.8700   -1.3290 C.ar      1 UNK         0.0000
     37 C26         7.4920   -5.1620   -1.8130 C.ar      1 UNK         0.0000
     38 C27         5.2270   -1.2700   -2.5000 C.3       1 UNK         0.0000
     39 H1          5.9240   -9.9870  -13.1730 H         1 UNK         0.0000
     40 H2          6.6660   -8.8440  -12.0270 H         1 UNK         0.0000
     41 H3          5.3070   -7.0310  -11.1000 H         1 UNK         0.0000
     42 H4          3.6010   -6.8860  -11.5900 H         1 UNK         0.0000
     43 H5          5.6530   -8.1730  -14.8270 H         1 UNK         0.0000
     44 H6          7.3590   -8.3170  -14.3380 H         1 UNK         0.0000
     45 H7          5.0360   -5.2160  -12.7550 H         1 UNK         0.0000
     46 H8          4.2950   -6.3590  -13.9010 H         1 UNK         0.0000
     47 H9          3.5880  -10.2780  -11.7280 H         1 UNK         0.0000
     48 H10         5.0100   -9.8400  -10.7500 H         1 UNK         0.0000
     49 H11         6.5210   -6.7350   -8.8180 H         1 UNK         0.0000
     50 H12         5.2090   -4.8210   -9.6450 H         1 UNK         0.0000
     51 H13         6.3060   -3.6880   -8.8180 H         1 UNK         0.0000
     52 H14         8.2170   -4.6150   -7.4160 H         1 UNK         0.0000
     53 H15         8.4210   -6.3810   -7.2900 H         1 UNK         0.0000
     54 H16         3.5940   -7.6400  -10.2690 H         1 UNK         0.0000
     55 H17         2.2240   -8.6890  -10.7020 H         1 UNK         0.0000
     56 H18         7.1030   -6.3450  -15.4990 H         1 UNK         0.0000
     57 H19         6.0050   -5.0740  -14.9120 H         1 UNK         0.0000
     58 H20         7.6660   -5.1750  -14.2810 H         1 UNK         0.0000
     59 H21         7.0690   -5.6350  -11.0430 H         1 UNK         0.0000
     60 H22         6.9140   -3.8690  -11.2020 H         1 UNK         0.0000
     61 H23         8.8940   -6.5200   -9.7050 H         1 UNK         0.0000
     62 H24        10.0130   -5.3720   -8.9300 H         1 UNK         0.0000
     63 H25         5.1160   -7.3930   -9.0260 H         1 UNK         0.0000
     64 H26         2.0670   -9.3370   -6.7460 H         1 UNK         0.0000
     65 H27         5.5480   -4.5110   -5.6370 H         1 UNK         0.0000
     66 H28         2.1460   -7.1410   -2.6650 H         1 UNK         0.0000
     67 H29         7.9430   -3.5940   -0.4340 H         1 UNK         0.0000
     68 H30         8.0920   -5.8930   -1.2920 H         1 UNK         0.0000
     69 H31         4.3230   -1.4240   -1.9120 H         1 UNK         0.0000
     70 H32         5.2860   -0.2400   -2.8500 H         1 UNK         0.0000
@<TRIPOS>BOND
     1    1   35 1
     2    2   17 1
     3    2   24 1
     4    3   22 1
     5    3   23 1
     6    4   20 1
     7    4   25 1
     8    5   33 1
     9    5   38 1
    10    6   34 1
    11    6   38 1
    12    7   12 1
    13    7   13 1
    14    7   16 1
    15    8   14 1
    16    8   15 1
    17    8   21 1
    18    9   30 1
    19    9   31 1
    20    9   65 1
    21   10   28 ar
    22   10   32 ar
    23   11   30 ar
    24   11   32 ar
    25   12   14 1
    26   12   39 1
    27   12   40 1
    28   13   15 1
    29   13   41 1
    30   13   42 1
    31   14   43 1
    32   14   44 1
    33   15   45 1
    34   15   46 1
    35   16   20 1
    36   16   47 1
    37   16   48 1
    38   17   18 1
    39   17   19 1
    40   17   49 1
    41   18   22 1
    42   18   50 1
    43   18   51 1
    44   19   23 1
    45   19   52 1
    46   19   53 1
    47   20   54 1
    48   20   55 1
    49   21   56 1
    50   21   57 1
    51   21   58 1
    52   22   59 1
    53   22   60 1
    54   23   61 1
    55   23   62 1
    56   24   26 ar
    57   24   27 ar
    58   25   27 ar
    59   25   29 ar
    60   26   28 ar
    61   26   30 ar
    62   27   63 1
    63   28   29 ar
    64   29   64 1
    65   31   33 ar
    66   31   35 ar
    67   32   66 1
    68   33   34 ar
    69   34   36 ar
    70   35   37 ar
    71   36   37 ar
    72   36   67 1
    73   37   68 1
    74   38   69 1
    75   38   70 1
