@<TRIPOS>MOLECULE
25174101
   55    58     0     0     0
SMALL
NO_CHARGES

@<TRIPOS>ATOM
      1 O1          1.4580   -5.5840    0.6190 O.2       1 UNK         0.0000
      2 N1          3.9640   -4.4810   -1.0530 N.pl3     1 UNK         0.0000
      3 N2          5.1970   -5.1140   -1.2520 N.2       1 UNK         0.0000
      4 N3          2.6810   -3.7540    0.9140 N.am      1 UNK         0.0000
      5 N4          0.4690   -3.8850    1.6500 N.am      1 UNK         0.0000
      6 N5          2.2480   -1.0360   -3.9670 N.pl3     1 UNK         0.0000
      7 C1          7.0680   -6.0090    0.1580 C.3       1 UNK         0.0000
      8 C2          5.7370   -5.3440   -0.0810 C.2       1 UNK         0.0000
      9 C3          7.5510   -5.6870    1.5730 C.3       1 UNK         0.0000
     10 C4          6.9180   -7.5230    0.0020 C.3       1 UNK         0.0000
     11 C5          8.0870   -5.4910   -0.8590 C.3       1 UNK         0.0000
     12 C6          4.8750   -4.8610    0.9070 C.2       1 UNK         0.0000
     13 C7          3.7820   -4.3370    0.2880 C.2       1 UNK         0.0000
     14 C8          3.0760   -4.0680   -2.0560 C.ar      1 UNK         0.0000
     15 C9          3.1010   -2.7570   -2.5090 C.ar      1 UNK         0.0000
     16 C10         2.1660   -4.9710   -2.5930 C.ar      1 UNK         0.0000
     17 C11         1.5330   -4.4480    1.0450 C.2       1 UNK         0.0000
     18 C12        -0.6800   -4.6410    1.8910 C.ar      1 UNK         0.0000
     19 C13        -0.7390   -5.5140    2.9980 C.ar      1 UNK         0.0000
     20 C14         2.2230   -2.3540   -3.5050 C.ar      1 UNK         0.0000
     21 C15        -1.9140   -6.2720    3.2230 C.ar      1 UNK         0.0000
     22 C16         1.2910   -4.5650   -3.5820 C.ar      1 UNK         0.0000
     23 C17         1.3160   -3.2620   -4.0390 C.ar      1 UNK         0.0000
     24 C18        -1.7660   -4.5410    1.0490 C.ar      1 UNK         0.0000
     25 C19         0.3450   -5.6460    3.8800 C.ar      1 UNK         0.0000
     26 C20        -3.0000   -6.1420    2.3400 C.ar      1 UNK         0.0000
     27 C21        -2.9160   -5.2920    1.2800 C.ar      1 UNK         0.0000
     28 C22        -1.9720   -7.1410    4.3250 C.ar      1 UNK         0.0000
     29 C23         0.2540   -6.4970    4.9390 C.ar      1 UNK         0.0000
     30 C24        -0.9020   -7.2430    5.1600 C.ar      1 UNK         0.0000
     31 H1          8.5530   -5.2600    1.5260 H         1 UNK         0.0000
     32 H2          6.8720   -4.9690    2.0350 H         1 UNK         0.0000
     33 H3          7.5720   -6.6000    2.1680 H         1 UNK         0.0000
     34 H4          6.2600   -7.9060    0.7830 H         1 UNK         0.0000
     35 H5          6.4910   -7.7480   -0.9760 H         1 UNK         0.0000
     36 H6          7.8960   -7.9960    0.0880 H         1 UNK         0.0000
     37 H7          8.9190   -6.1910   -0.9300 H         1 UNK         0.0000
     38 H8          7.6100   -5.3940   -1.8350 H         1 UNK         0.0000
     39 H9          8.4580   -4.5180   -0.5390 H         1 UNK         0.0000
     40 H10         5.0450   -4.9000    1.9730 H         1 UNK         0.0000
     41 H11         2.7400   -2.8470    1.2550 H         1 UNK         0.0000
     42 H12         3.8040   -2.0530   -2.0890 H         1 UNK         0.0000
     43 H13         2.1440   -5.9900   -2.2370 H         1 UNK         0.0000
     44 H14         0.5010   -2.9530    1.9170 H         1 UNK         0.0000
     45 H15         0.5850   -5.2680   -3.9980 H         1 UNK         0.0000
     46 H16         0.6300   -2.9480   -4.8120 H         1 UNK         0.0000
     47 H17        -1.7250   -3.8750    0.2010 H         1 UNK         0.0000
     48 H18         1.2470   -5.0730    3.7200 H         1 UNK         0.0000
     49 H19        -3.8990   -6.7190    2.5010 H         1 UNK         0.0000
     50 H20        -3.7550   -5.1980    0.6060 H         1 UNK         0.0000
     51 H21        -2.8620   -7.7250    4.5100 H         1 UNK         0.0000
     52 H22         1.0890   -6.5960    5.6160 H         1 UNK         0.0000
     53 H23        -0.9490   -7.9120    6.0070 H         1 UNK         0.0000
     54 H24         2.2200   -0.3000   -3.3360 H         1 UNK         0.0000
     55 H25         2.2950   -0.8570   -4.9200 H         1 UNK         0.0000
@<TRIPOS>BOND
     1    1   17 2
     2    2    3 1
     3    2   13 1
     4    2   14 1
     5    3    8 2
     6    4   13 1
     7    4   17 am
     8    4   41 1
     9    5   17 am
    10    5   18 1
    11    5   44 1
    12    6   20 1
    13    6   54 1
    14    6   55 1
    15    7    8 1
    16    7    9 1
    17    7   10 1
    18    7   11 1
    19    8   12 1
    20    9   31 1
    21    9   32 1
    22    9   33 1
    23   10   34 1
    24   10   35 1
    25   10   36 1
    26   11   37 1
    27   11   38 1
    28   11   39 1
    29   12   13 2
    30   12   40 1
    31   14   15 ar
    32   14   16 ar
    33   15   20 ar
    34   15   42 1
    35   16   22 ar
    36   16   43 1
    37   18   19 ar
    38   18   24 ar
    39   19   21 ar
    40   19   25 ar
    41   20   23 ar
    42   21   26 ar
    43   21   28 ar
    44   22   23 ar
    45   22   45 1
    46   23   46 1
    47   24   27 ar
    48   24   47 1
    49   25   29 ar
    50   25   48 1
    51   26   27 ar
    52   26   49 1
    53   27   50 1
    54   28   30 ar
    55   28   51 1
    56   29   30 ar
    57   29   52 1
    58   30   53 1
