@<TRIPOS>MOLECULE
24821094
   57    61     0     0     0
SMALL
NO_CHARGES

@<TRIPOS>ATOM
      1 O1          6.4170   -8.5540  -17.5560 O.2       1 UNK         0.0000
      2 O2          4.4300   -5.0220   -4.9140 O.3       1 UNK         0.0000
      3 N1          6.0690   -8.0270  -15.4270 N.am      1 UNK         0.0000
      4 N2          6.5060   -6.0100  -12.3230 N.pl3     1 UNK         0.0000
      5 N3          5.6720   -5.9330  -11.2020 N.2       1 UNK         0.0000
      6 N4          8.9560   -5.6920  -12.5950 N.ar      1 UNK         0.0000
      7 N5         10.0970   -5.1800  -10.6490 N.ar      1 UNK         0.0000
      8 N6          9.0250   -4.9740   -8.5590 N.pl3     1 UNK         0.0000
      9 C1          6.0660   -6.3150  -13.6860 C.3       1 UNK         0.0000
     10 C2          4.5360   -6.3600  -13.7310 C.3       1 UNK         0.0000
     11 C3          6.6250   -7.6780  -14.1120 C.3       1 UNK         0.0000
     12 C4          4.0740   -6.6460  -15.1620 C.3       1 UNK         0.0000
     13 C5          4.6110   -8.0060  -15.6050 C.3       1 UNK         0.0000
     14 C6          7.7910   -5.7530  -11.9500 C.ar      1 UNK         0.0000
     15 C7          7.7750   -5.5130  -10.5630 C.ar      1 UNK         0.0000
     16 C8          6.8820   -8.3540  -16.4510 C.2       1 UNK         0.0000
     17 C9          6.3820   -5.6460  -10.1370 C.2       1 UNK         0.0000
     18 C10         8.9870   -5.2180   -9.9190 C.ar      1 UNK         0.0000
     19 C11         5.8670   -5.4820   -8.7570 C.ar      1 UNK         0.0000
     20 C12         8.3320   -8.4690  -16.2310 C.2       1 UNK         0.0000
     21 C13        10.0670   -5.4120  -11.9490 C.ar      1 UNK         0.0000
     22 C14         5.6240   -4.2050   -8.2490 C.ar      1 UNK         0.0000
     23 C15         5.6180   -6.6020   -7.9660 C.ar      1 UNK         0.0000
     24 C16         8.9310   -9.6510  -16.3510 C.2       1 UNK         0.0000
     25 C17         5.1450   -4.0550   -6.9650 C.ar      1 UNK         0.0000
     26 C18         5.1430   -6.4460   -6.6810 C.ar      1 UNK         0.0000
     27 C19         4.9020   -5.1730   -6.1780 C.ar      1 UNK         0.0000
     28 C20         5.1980   -4.3430   -4.0220 C.ar      1 UNK         0.0000
     29 C21         4.7840   -3.1060   -3.5470 C.ar      1 UNK         0.0000
     30 C22         6.3960   -4.8870   -3.5800 C.ar      1 UNK         0.0000
     31 C23         5.5670   -2.4190   -2.6410 C.ar      1 UNK         0.0000
     32 C24         7.1770   -4.1930   -2.6780 C.ar      1 UNK         0.0000
     33 C25         6.7620   -2.9620   -2.2060 C.ar      1 UNK         0.0000
     34 H1          6.4280   -5.5450  -14.3670 H         1 UNK         0.0000
     35 H2          4.1760   -7.1480  -13.0680 H         1 UNK         0.0000
     36 H3          4.1350   -5.4010  -13.4050 H         1 UNK         0.0000
     37 H4          6.3390   -8.4340  -13.3820 H         1 UNK         0.0000
     38 H5          7.7110   -7.6220  -14.1780 H         1 UNK         0.0000
     39 H6          2.9850   -6.6550  -15.1970 H         1 UNK         0.0000
     40 H7          4.4530   -5.8720  -15.8280 H         1 UNK         0.0000
     41 H8          4.3700   -8.1670  -16.6560 H         1 UNK         0.0000
     42 H9          4.1580   -8.7900  -14.9990 H         1 UNK         0.0000
     43 H10         8.9090   -7.5950  -15.9680 H         1 UNK         0.0000
     44 H11        10.9930   -5.3710  -12.5040 H         1 UNK         0.0000
     45 H12         5.8110   -3.3360   -8.8620 H         1 UNK         0.0000
     46 H13         5.8000   -7.5920   -8.3580 H         1 UNK         0.0000
     47 H14         9.8730   -4.7940   -8.1230 H         1 UNK         0.0000
     48 H15         8.2050   -4.9810   -8.0420 H         1 UNK         0.0000
     49 H16         9.9950   -9.7360  -16.1850 H         1 UNK         0.0000
     50 H17         8.3530  -10.5250  -16.6140 H         1 UNK         0.0000
     51 H18         4.9570   -3.0670   -6.5710 H         1 UNK         0.0000
     52 H19         4.9530   -7.3130   -6.0650 H         1 UNK         0.0000
     53 H20         3.8500   -2.6820   -3.8870 H         1 UNK         0.0000
     54 H21         6.7170   -5.8520   -3.9440 H         1 UNK         0.0000
     55 H22         5.2450   -1.4560   -2.2700 H         1 UNK         0.0000
     56 H23         8.1110   -4.6150   -2.3370 H         1 UNK         0.0000
     57 H24         7.3730   -2.4220   -1.4970 H         1 UNK         0.0000
@<TRIPOS>BOND
     1    1   16 2
     2    2   27 1
     3    2   28 1
     4    3   11 1
     5    3   13 1
     6    3   16 am
     7    4    5 1
     8    4    9 1
     9    4   14 1
    10    5   17 2
    11    6   14 ar
    12    6   21 ar
    13    7   18 ar
    14    7   21 ar
    15    8   18 1
    16    8   47 1
    17    8   48 1
    18    9   10 1
    19    9   11 1
    20    9   34 1
    21   10   12 1
    22   10   35 1
    23   10   36 1
    24   11   37 1
    25   11   38 1
    26   12   13 1
    27   12   39 1
    28   12   40 1
    29   13   41 1
    30   13   42 1
    31   14   15 ar
    32   15   17 1
    33   15   18 ar
    34   16   20 1
    35   17   19 1
    36   19   22 ar
    37   19   23 ar
    38   20   24 2
    39   20   43 1
    40   21   44 1
    41   22   25 ar
    42   22   45 1
    43   23   26 ar
    44   23   46 1
    45   24   49 1
    46   24   50 1
    47   25   27 ar
    48   25   51 1
    49   26   27 ar
    50   26   52 1
    51   28   29 ar
    52   28   30 ar
    53   29   31 ar
    54   29   53 1
    55   30   32 ar
    56   30   54 1
    57   31   33 ar
    58   31   55 1
    59   32   33 ar
    60   32   56 1
    61   33   57 1
