@<TRIPOS>MOLECULE
24821094
   57    61     0     0     0
SMALL
NO_CHARGES

@<TRIPOS>ATOM
      1 O1          1.3890   -9.6020   -6.4570 O.2       1 UNK         0.0000
      2 O2         12.4550   -3.4490  -10.5540 O.3       1 UNK         0.0000
      3 N1          3.2930   -8.6670   -7.1140 N.am      1 UNK         0.0000
      4 N2          5.4350   -6.4770   -9.2370 N.pl3     1 UNK         0.0000
      5 N3          6.6670   -5.8740   -8.9610 N.2       1 UNK         0.0000
      6 N4          4.3900   -7.2220  -11.3650 N.ar      1 UNK         0.0000
      7 N5          5.6740   -6.8750  -13.2580 N.ar      1 UNK         0.0000
      8 N6          7.8150   -5.8900  -13.1840 N.pl3     1 UNK         0.0000
      9 C1          4.4160   -6.8150   -8.2400 C.3       1 UNK         0.0000
     10 C2          4.8710   -6.3320   -6.8600 C.3       1 UNK         0.0000
     11 C3          4.2200   -8.3350   -8.2050 C.3       1 UNK         0.0000
     12 C4          3.7930   -6.6560   -5.8240 C.3       1 UNK         0.0000
     13 C5          3.5870   -8.1690   -5.7630 C.3       1 UNK         0.0000
     14 C6          5.3280   -6.6950  -10.5770 C.ar      1 UNK         0.0000
     15 C7          6.5180   -6.2270  -11.1650 C.ar      1 UNK         0.0000
     16 C8          2.1930   -9.4090   -7.3480 C.2       1 UNK         0.0000
     17 C9          7.3440   -5.7130  -10.0740 C.2       1 UNK         0.0000
     18 C10         6.6660   -6.3350  -12.5570 C.ar      1 UNK         0.0000
     19 C11         8.6940   -5.1140  -10.2010 C.ar      1 UNK         0.0000
     20 C12         1.9660   -9.9860   -8.6830 C.2       1 UNK         0.0000
     21 C13         4.5730   -7.3020  -12.6650 C.ar      1 UNK         0.0000
     22 C14         9.8080   -5.7930   -9.7060 C.ar      1 UNK         0.0000
     23 C15         8.8540   -3.8750  -10.8190 C.ar      1 UNK         0.0000
     24 C16         1.4290  -11.1970   -8.8010 C.2       1 UNK         0.0000
     25 C17        11.0630   -5.2330   -9.8260 C.ar      1 UNK         0.0000
     26 C18        10.1100   -3.3190  -10.9310 C.ar      1 UNK         0.0000
     27 C19        11.2180   -3.9970  -10.4380 C.ar      1 UNK         0.0000
     28 C20        12.6930   -2.2710   -9.9190 C.ar      1 UNK         0.0000
     29 C21        12.5650   -1.0720  -10.6070 C.ar      1 UNK         0.0000
     30 C22        13.0600   -2.2650   -8.5810 C.ar      1 UNK         0.0000
     31 C23        12.8070    0.1230   -9.9580 C.ar      1 UNK         0.0000
     32 C24        13.3060   -1.0670   -7.9390 C.ar      1 UNK         0.0000
     33 C25        13.1780    0.1260   -8.6260 C.ar      1 UNK         0.0000
     34 H1          3.4750   -6.3330   -8.5030 H         1 UNK         0.0000
     35 H2          5.8000   -6.8340   -6.5880 H         1 UNK         0.0000
     36 H3          5.0360   -5.2550   -6.8890 H         1 UNK         0.0000
     37 H4          5.1780   -8.8230   -8.0320 H         1 UNK         0.0000
     38 H5          3.8010   -8.6710   -9.1530 H         1 UNK         0.0000
     39 H6          4.1080   -6.2920   -4.8450 H         1 UNK         0.0000
     40 H7          2.8590   -6.1740   -6.1080 H         1 UNK         0.0000
     41 H8          2.7510   -8.3950   -5.1010 H         1 UNK         0.0000
     42 H9          4.4930   -8.6430   -5.3870 H         1 UNK         0.0000
     43 H10         2.2390   -9.4270   -9.5650 H         1 UNK         0.0000
     44 H11         3.7920   -7.7340  -13.2730 H         1 UNK         0.0000
     45 H12         9.6880   -6.7550   -9.2310 H         1 UNK         0.0000
     46 H13         7.9930   -3.3500  -11.2070 H         1 UNK         0.0000
     47 H14         8.6850   -6.1180  -12.8190 H         1 UNK         0.0000
     48 H15         7.7510   -5.3500  -13.9870 H         1 UNK         0.0000
     49 H16         1.2660  -11.6220   -9.7810 H         1 UNK         0.0000
     50 H17         1.1550  -11.7550   -7.9170 H         1 UNK         0.0000
     51 H18        11.9260   -5.7570   -9.4430 H         1 UNK         0.0000
     52 H19        10.2340   -2.3570  -11.4060 H         1 UNK         0.0000
     53 H20        12.2760   -1.0740  -11.6470 H         1 UNK         0.0000
     54 H21        13.1550   -3.1960   -8.0420 H         1 UNK         0.0000
     55 H22        12.7080    1.0570  -10.4920 H         1 UNK         0.0000
     56 H23        13.5960   -1.0620   -6.8990 H         1 UNK         0.0000
     57 H24        13.3680    1.0620   -8.1210 H         1 UNK         0.0000
@<TRIPOS>BOND
     1    1   16 2
     2    2   27 1
     3    2   28 1
     4    3   11 1
     5    3   13 1
     6    3   16 am
     7    4    5 1
     8    4    9 1
     9    4   14 1
    10    5   17 2
    11    6   14 ar
    12    6   21 ar
    13    7   18 ar
    14    7   21 ar
    15    8   18 1
    16    8   47 1
    17    8   48 1
    18    9   10 1
    19    9   11 1
    20    9   34 1
    21   10   12 1
    22   10   35 1
    23   10   36 1
    24   11   37 1
    25   11   38 1
    26   12   13 1
    27   12   39 1
    28   12   40 1
    29   13   41 1
    30   13   42 1
    31   14   15 ar
    32   15   17 1
    33   15   18 ar
    34   16   20 1
    35   17   19 1
    36   19   22 ar
    37   19   23 ar
    38   20   24 2
    39   20   43 1
    40   21   44 1
    41   22   25 ar
    42   22   45 1
    43   23   26 ar
    44   23   46 1
    45   24   49 1
    46   24   50 1
    47   25   27 ar
    48   25   51 1
    49   26   27 ar
    50   26   52 1
    51   28   29 ar
    52   28   30 ar
    53   29   31 ar
    54   29   53 1
    55   30   32 ar
    56   30   54 1
    57   31   33 ar
    58   31   55 1
    59   32   33 ar
    60   32   56 1
    61   33   57 1
