@<TRIPOS>MOLECULE
24821094
   57    61     0     0     0
SMALL
NO_CHARGES

@<TRIPOS>ATOM
      1 O1          1.1220   -8.0990   -4.2640 O.2       1 UNK         0.0000
      2 O2         12.1060   -4.0830  -10.8270 O.3       1 UNK         0.0000
      3 N1          3.0480   -7.6970   -5.2950 N.am      1 UNK         0.0000
      4 N2          5.2360   -6.2230   -7.9280 N.pl3     1 UNK         0.0000
      5 N3          6.5160   -5.6580   -7.9660 N.2       1 UNK         0.0000
      6 N4          3.8770   -7.3780   -9.6590 N.ar      1 UNK         0.0000
      7 N5          4.8950   -7.5800  -11.7260 N.ar      1 UNK         0.0000
      8 N6          7.0590   -6.7560  -12.1680 N.pl3     1 UNK         0.0000
      9 C1          4.3560   -6.2440   -6.7570 C.3       1 UNK         0.0000
     10 C2          5.1410   -5.8070   -5.5190 C.3       1 UNK         0.0000
     11 C3          3.8220   -7.6650   -6.5440 C.3       1 UNK         0.0000
     12 C4          4.2140   -5.7970   -4.3010 C.3       1 UNK         0.0000
     13 C5          3.6780   -7.2070   -4.0610 C.3       1 UNK         0.0000
     14 C6          4.9340   -6.7450   -9.1500 C.ar      1 UNK         0.0000
     15 C7          6.0460   -6.5140   -9.9800 C.ar      1 UNK         0.0000
     16 C8          1.7830   -8.1600   -5.2830 C.2       1 UNK         0.0000
     17 C9          7.0350   -5.8140   -9.1610 C.2       1 UNK         0.0000
     18 C10         5.9940   -6.9590  -11.3110 C.ar      1 UNK         0.0000
     19 C11         8.3750   -5.3570   -9.6020 C.ar      1 UNK         0.0000
     20 C12         1.2010   -8.7410   -6.5040 C.2       1 UNK         0.0000
     21 C13         3.8730   -7.7760  -10.9120 C.ar      1 UNK         0.0000
     22 C14         8.4920   -4.2850  -10.4870 C.ar      1 UNK         0.0000
     23 C15         9.5210   -5.9930   -9.1270 C.ar      1 UNK         0.0000
     24 C16         0.8680  -10.0280   -6.5340 C.2       1 UNK         0.0000
     25 C17         9.7390   -3.8630  -10.8950 C.ar      1 UNK         0.0000
     26 C18        10.7660   -5.5690   -9.5420 C.ar      1 UNK         0.0000
     27 C19        10.8790   -4.5020  -10.4240 C.ar      1 UNK         0.0000
     28 C20        12.4740   -2.8090  -10.5340 C.ar      1 UNK         0.0000
     29 C21        12.7140   -2.4400   -9.2170 C.ar      1 UNK         0.0000
     30 C22        12.6170   -1.8750  -11.5490 C.ar      1 UNK         0.0000
     31 C23        13.0890   -1.1450   -8.9220 C.ar      1 UNK         0.0000
     32 C24        12.9870   -0.5790  -11.2480 C.ar      1 UNK         0.0000
     33 C25        13.2250   -0.2140   -9.9360 C.ar      1 UNK         0.0000
     34 H1          3.5200   -5.5630   -6.9180 H         1 UNK         0.0000
     35 H2          5.9620   -6.5030   -5.3450 H         1 UNK         0.0000
     36 H3          5.5430   -4.8060   -5.6780 H         1 UNK         0.0000
     37 H4          4.6570   -8.3610   -6.4730 H         1 UNK         0.0000
     38 H5          3.1800   -7.9430   -7.3780 H         1 UNK         0.0000
     39 H6          4.7690   -5.4640   -3.4240 H         1 UNK         0.0000
     40 H7          3.3820   -5.1190   -4.4840 H         1 UNK         0.0000
     41 H8          2.9400   -7.1840   -3.2590 H         1 UNK         0.0000
     42 H9          4.5010   -7.8660   -3.7850 H         1 UNK         0.0000
     43 H10         1.0470   -8.1220   -7.3750 H         1 UNK         0.0000
     44 H11         3.0000   -8.2850  -11.2920 H         1 UNK         0.0000
     45 H12         7.6060   -3.7880  -10.8530 H         1 UNK         0.0000
     46 H13         9.4340   -6.8200   -8.4370 H         1 UNK         0.0000
     47 H14         7.1310   -7.2760  -12.9830 H         1 UNK         0.0000
     48 H15         7.7350   -6.0920  -11.9540 H         1 UNK         0.0000
     49 H16         0.4440  -10.4550   -7.4310 H         1 UNK         0.0000
     50 H17         1.0210  -10.6460   -5.6610 H         1 UNK         0.0000
     51 H18         9.8310   -3.0340  -11.5810 H         1 UNK         0.0000
     52 H19        11.6540   -6.0640   -9.1780 H         1 UNK         0.0000
     53 H20        12.6070   -3.1670   -8.4250 H         1 UNK         0.0000
     54 H21        12.4370   -2.1600  -12.5750 H         1 UNK         0.0000
     55 H22        13.2750   -0.8560   -7.8970 H         1 UNK         0.0000
     56 H23        13.0940    0.1500  -12.0380 H         1 UNK         0.0000
     57 H24        13.5170    0.7990   -9.7020 H         1 UNK         0.0000
@<TRIPOS>BOND
     1    1   16 2
     2    2   27 1
     3    2   28 1
     4    3   11 1
     5    3   13 1
     6    3   16 am
     7    4    5 1
     8    4    9 1
     9    4   14 1
    10    5   17 2
    11    6   14 ar
    12    6   21 ar
    13    7   18 ar
    14    7   21 ar
    15    8   18 1
    16    8   47 1
    17    8   48 1
    18    9   10 1
    19    9   11 1
    20    9   34 1
    21   10   12 1
    22   10   35 1
    23   10   36 1
    24   11   37 1
    25   11   38 1
    26   12   13 1
    27   12   39 1
    28   12   40 1
    29   13   41 1
    30   13   42 1
    31   14   15 ar
    32   15   17 1
    33   15   18 ar
    34   16   20 1
    35   17   19 1
    36   19   22 ar
    37   19   23 ar
    38   20   24 2
    39   20   43 1
    40   21   44 1
    41   22   25 ar
    42   22   45 1
    43   23   26 ar
    44   23   46 1
    45   24   49 1
    46   24   50 1
    47   25   27 ar
    48   25   51 1
    49   26   27 ar
    50   26   52 1
    51   28   29 ar
    52   28   30 ar
    53   29   31 ar
    54   29   53 1
    55   30   32 ar
    56   30   54 1
    57   31   33 ar
    58   31   55 1
    59   32   33 ar
    60   32   56 1
    61   33   57 1
