@<TRIPOS>MOLECULE
24821094
   57    61     0     0     0
SMALL
NO_CHARGES

@<TRIPOS>ATOM
      1 O1          4.3830   -8.6700  -16.4690 O.2       1 UNK         0.0000
      2 O2          4.4840   -4.1070   -3.9790 O.3       1 UNK         0.0000
      3 N1          5.2810   -8.5770  -14.4400 N.am      1 UNK         0.0000
      4 N2          5.6140   -7.3460  -10.9370 N.pl3     1 UNK         0.0000
      5 N3          4.9290   -6.9170   -9.7950 N.2       1 UNK         0.0000
      6 N4          7.9980   -7.1610  -11.6120 N.ar      1 UNK         0.0000
      7 N5          9.3670   -6.0930  -10.0830 N.ar      1 UNK         0.0000
      8 N6          8.5680   -5.2410   -8.0350 N.pl3     1 UNK         0.0000
      9 C1          5.0090   -8.0480  -12.0720 C.3       1 UNK         0.0000
     10 C2          5.0080   -9.5540  -11.7990 C.3       1 UNK         0.0000
     11 C3          5.8210   -7.7640  -13.3410 C.3       1 UNK         0.0000
     12 C4          4.3470  -10.2860  -12.9690 C.3       1 UNK         0.0000
     13 C5          5.1460  -10.0260  -14.2450 C.3       1 UNK         0.0000
     14 C6          6.9280   -7.0050  -10.8320 C.ar      1 UNK         0.0000
     15 C7          7.0850   -6.3510   -9.5960 C.ar      1 UNK         0.0000
     16 C8          4.9110   -8.0010  -15.6010 C.2       1 UNK         0.0000
     17 C9          5.7630   -6.3270   -8.9710 C.2       1 UNK         0.0000
     18 C10         8.3610   -5.8900   -9.2370 C.ar      1 UNK         0.0000
     19 C11         5.4250   -5.7400   -7.6520 C.ar      1 UNK         0.0000
     20 C12         5.1460   -6.5660  -15.8180 C.2       1 UNK         0.0000
     21 C13         9.1750   -6.7130  -11.2330 C.ar      1 UNK         0.0000
     22 C14         5.0840   -6.5710   -6.5850 C.ar      1 UNK         0.0000
     23 C15         5.4530   -4.3580   -7.4750 C.ar      1 UNK         0.0000
     24 C16         6.1270   -6.1670  -16.6240 C.2       1 UNK         0.0000
     25 C17         4.7700   -6.0220   -5.3590 C.ar      1 UNK         0.0000
     26 C18         5.1330   -3.8140   -6.2490 C.ar      1 UNK         0.0000
     27 C19         4.7940   -4.6440   -5.1870 C.ar      1 UNK         0.0000
     28 C20         5.4690   -3.4690   -3.2930 C.ar      1 UNK         0.0000
     29 C21         5.2910   -2.1550   -2.8810 C.ar      1 UNK         0.0000
     30 C22         6.6520   -4.1320   -2.9980 C.ar      1 UNK         0.0000
     31 C23         6.2940   -1.5110   -2.1840 C.ar      1 UNK         0.0000
     32 C24         7.6530   -3.4810   -2.3050 C.ar      1 UNK         0.0000
     33 C25         7.4730   -2.1720   -1.8960 C.ar      1 UNK         0.0000
     34 H1          3.9850   -7.7020  -12.2110 H         1 UNK         0.0000
     35 H2          6.0340   -9.9040  -11.6850 H         1 UNK         0.0000
     36 H3          4.4520   -9.7570  -10.8830 H         1 UNK         0.0000
     37 H4          6.8650   -8.0260  -13.1720 H         1 UNK         0.0000
     38 H5          5.7430   -6.7080  -13.5950 H         1 UNK         0.0000
     39 H6          4.3260  -11.3570  -12.7640 H         1 UNK         0.0000
     40 H7          3.3290   -9.9200  -13.0990 H         1 UNK         0.0000
     41 H8          4.6230  -10.4620  -15.0970 H         1 UNK         0.0000
     42 H9          6.1340  -10.4760  -14.1520 H         1 UNK         0.0000
     43 H10         4.5250   -5.8360  -15.3210 H         1 UNK         0.0000
     44 H11        10.0210   -6.8560  -11.8910 H         1 UNK         0.0000
     45 H12         5.0670   -7.6420   -6.7180 H         1 UNK         0.0000
     46 H13         5.7210   -3.7120   -8.2990 H         1 UNK         0.0000
     47 H14         8.5480   -5.7420   -7.2040 H         1 UNK         0.0000
     48 H15         8.7320   -4.2850   -8.0210 H         1 UNK         0.0000
     49 H16         6.3020   -5.1130  -16.7800 H         1 UNK         0.0000
     50 H17         6.7480   -6.8980  -17.1210 H         1 UNK         0.0000
     51 H18         4.5060   -6.6640   -4.5320 H         1 UNK         0.0000
     52 H19         5.1500   -2.7430   -6.1110 H         1 UNK         0.0000
     53 H20         4.3700   -1.6390   -3.1060 H         1 UNK         0.0000
     54 H21         6.7900   -5.1560   -3.3120 H         1 UNK         0.0000
     55 H22         6.1570   -0.4880   -1.8630 H         1 UNK         0.0000
     56 H23         8.5750   -3.9950   -2.0790 H         1 UNK         0.0000
     57 H24         8.2560   -1.6650   -1.3500 H         1 UNK         0.0000
@<TRIPOS>BOND
     1    1   16 2
     2    2   27 1
     3    2   28 1
     4    3   11 1
     5    3   13 1
     6    3   16 am
     7    4    5 1
     8    4    9 1
     9    4   14 1
    10    5   17 2
    11    6   14 ar
    12    6   21 ar
    13    7   18 ar
    14    7   21 ar
    15    8   18 1
    16    8   47 1
    17    8   48 1
    18    9   10 1
    19    9   11 1
    20    9   34 1
    21   10   12 1
    22   10   35 1
    23   10   36 1
    24   11   37 1
    25   11   38 1
    26   12   13 1
    27   12   39 1
    28   12   40 1
    29   13   41 1
    30   13   42 1
    31   14   15 ar
    32   15   17 1
    33   15   18 ar
    34   16   20 1
    35   17   19 1
    36   19   22 ar
    37   19   23 ar
    38   20   24 2
    39   20   43 1
    40   21   44 1
    41   22   25 ar
    42   22   45 1
    43   23   26 ar
    44   23   46 1
    45   24   49 1
    46   24   50 1
    47   25   27 ar
    48   25   51 1
    49   26   27 ar
    50   26   52 1
    51   28   29 ar
    52   28   30 ar
    53   29   31 ar
    54   29   53 1
    55   30   32 ar
    56   30   54 1
    57   31   33 ar
    58   31   55 1
    59   32   33 ar
    60   32   56 1
    61   33   57 1
