@<TRIPOS>MOLECULE
24821094
   57    61     0     0     0
SMALL
NO_CHARGES

@<TRIPOS>ATOM
      1 O1          8.9900   -4.5270  -14.4520 O.2       1 UNK         0.0000
      2 O2          6.2240   -3.9190   -2.4640 O.3       1 UNK         0.0000
      3 N1          7.8030   -5.5970  -12.9090 N.am      1 UNK         0.0000
      4 N2          5.5590   -5.8620   -9.9450 N.pl3     1 UNK         0.0000
      5 N3          5.9850   -5.1560   -8.8140 N.2       1 UNK         0.0000
      6 N4          4.0650   -7.8310  -10.2090 N.ar      1 UNK         0.0000
      7 N5          3.1970   -8.6690   -8.2350 N.ar      1 UNK         0.0000
      8 N6          3.6850   -7.7330   -6.1270 N.pl3     1 UNK         0.0000
      9 C1          5.9450   -5.5610  -11.3250 C.3       1 UNK         0.0000
     10 C2          5.1930   -6.4910  -12.2810 C.3       1 UNK         0.0000
     11 C3          7.4540   -5.7760  -11.4930 C.3       1 UNK         0.0000
     12 C4          5.5720   -6.1550  -13.7250 C.3       1 UNK         0.0000
     13 C5          7.0720   -6.3730  -13.9190 C.3       1 UNK         0.0000
     14 C6          4.7320   -6.8750   -9.5610 C.ar      1 UNK         0.0000
     15 C7          4.6260   -6.8090   -8.1600 C.ar      1 UNK         0.0000
     16 C8          8.7710   -4.7330  -13.2730 C.2       1 UNK         0.0000
     17 C9          5.4520   -5.6790   -7.7350 C.2       1 UNK         0.0000
     18 C10         3.8220   -7.7540   -7.5030 C.ar      1 UNK         0.0000
     19 C11         5.6550   -5.2140   -6.3420 C.ar      1 UNK         0.0000
     20 C12         9.5630   -4.0400  -12.2460 C.2       1 UNK         0.0000
     21 C13         3.3240   -8.6950   -9.5500 C.ar      1 UNK         0.0000
     22 C14         6.8150   -5.5660   -5.6510 C.ar      1 UNK         0.0000
     23 C15         4.6920   -4.4200   -5.7230 C.ar      1 UNK         0.0000
     24 C16        10.8920   -4.0530  -12.3090 C.2       1 UNK         0.0000
     25 C17         7.0010   -5.1320   -4.3550 C.ar      1 UNK         0.0000
     26 C18         4.8810   -3.9930   -4.4260 C.ar      1 UNK         0.0000
     27 C19         6.0370   -4.3450   -3.7400 C.ar      1 UNK         0.0000
     28 C20         6.4310   -2.5930   -2.2580 C.ar      1 UNK         0.0000
     29 C21         7.7210   -2.0790   -2.2770 C.ar      1 UNK         0.0000
     30 C22         5.3550   -1.7470   -2.0330 C.ar      1 UNK         0.0000
     31 C23         7.9290   -0.7300   -2.0680 C.ar      1 UNK         0.0000
     32 C24         5.5690   -0.4000   -1.8190 C.ar      1 UNK         0.0000
     33 C25         6.8540    0.1090   -1.8390 C.ar      1 UNK         0.0000
     34 H1          5.6980   -4.5250  -11.5550 H         1 UNK         0.0000
     35 H2          5.4600   -7.5260  -12.0660 H         1 UNK         0.0000
     36 H3          4.1200   -6.3580  -12.1460 H         1 UNK         0.0000
     37 H4          7.7160   -6.7850  -11.1770 H         1 UNK         0.0000
     38 H5          7.9950   -5.0480  -10.8890 H         1 UNK         0.0000
     39 H6          5.0190   -6.8030  -14.4060 H         1 UNK         0.0000
     40 H7          5.3270   -5.1150  -13.9330 H         1 UNK         0.0000
     41 H8          7.3610   -6.0390  -14.9160 H         1 UNK         0.0000
     42 H9          7.3020   -7.4310  -13.8050 H         1 UNK         0.0000
     43 H10         9.0660   -3.5230  -11.4390 H         1 UNK         0.0000
     44 H11         2.7980   -9.4560  -10.1060 H         1 UNK         0.0000
     45 H12         7.5650   -6.1770   -6.1300 H         1 UNK         0.0000
     46 H13         3.7950   -4.1410   -6.2580 H         1 UNK         0.0000
     47 H14         4.2700   -7.1750   -5.5910 H         1 UNK         0.0000
     48 H15         3.0050   -8.2760   -5.6990 H         1 UNK         0.0000
     49 H16        11.4730   -3.5470  -11.5520 H         1 UNK         0.0000
     50 H17        11.3890   -4.5700  -13.1170 H         1 UNK         0.0000
     51 H18         7.8980   -5.4040   -3.8190 H         1 UNK         0.0000
     52 H19         4.1340   -3.3810   -3.9440 H         1 UNK         0.0000
     53 H20         8.5610   -2.7340   -2.4560 H         1 UNK         0.0000
     54 H21         4.3500   -2.1430   -2.0230 H         1 UNK         0.0000
     55 H22         8.9320   -0.3290   -2.0830 H         1 UNK         0.0000
     56 H23         4.7310    0.2580   -1.6390 H         1 UNK         0.0000
     57 H24         7.0190    1.1640   -1.6750 H         1 UNK         0.0000
@<TRIPOS>BOND
     1    1   16 2
     2    2   27 1
     3    2   28 1
     4    3   11 1
     5    3   13 1
     6    3   16 am
     7    4    5 1
     8    4    9 1
     9    4   14 1
    10    5   17 2
    11    6   14 ar
    12    6   21 ar
    13    7   18 ar
    14    7   21 ar
    15    8   18 1
    16    8   47 1
    17    8   48 1
    18    9   10 1
    19    9   11 1
    20    9   34 1
    21   10   12 1
    22   10   35 1
    23   10   36 1
    24   11   37 1
    25   11   38 1
    26   12   13 1
    27   12   39 1
    28   12   40 1
    29   13   41 1
    30   13   42 1
    31   14   15 ar
    32   15   17 1
    33   15   18 ar
    34   16   20 1
    35   17   19 1
    36   19   22 ar
    37   19   23 ar
    38   20   24 2
    39   20   43 1
    40   21   44 1
    41   22   25 ar
    42   22   45 1
    43   23   26 ar
    44   23   46 1
    45   24   49 1
    46   24   50 1
    47   25   27 ar
    48   25   51 1
    49   26   27 ar
    50   26   52 1
    51   28   29 ar
    52   28   30 ar
    53   29   31 ar
    54   29   53 1
    55   30   32 ar
    56   30   54 1
    57   31   33 ar
    58   31   55 1
    59   32   33 ar
    60   32   56 1
    61   33   57 1
