@<TRIPOS>MOLECULE
24821094
   57    61     0     0     0
SMALL
NO_CHARGES

@<TRIPOS>ATOM
      1 O1          3.3130   -7.3350   -4.0840 O.2       1 UNK         0.0000
      2 O2         12.2030   -2.8870  -11.2940 O.3       1 UNK         0.0000
      3 N1          3.7780   -6.9990   -6.2300 N.am      1 UNK         0.0000
      4 N2          5.9410   -6.9920   -9.2650 N.pl3     1 UNK         0.0000
      5 N3          7.1150   -6.2460   -9.1150 N.2       1 UNK         0.0000
      6 N4          4.6620   -7.6890  -11.2790 N.ar      1 UNK         0.0000
      7 N5          5.5610   -6.9990  -13.2950 N.ar      1 UNK         0.0000
      8 N6          7.5420   -5.7290  -13.4400 N.pl3     1 UNK         0.0000
      9 C1          5.1520   -7.5580   -8.1680 C.3       1 UNK         0.0000
     10 C2          3.9390   -8.2960   -8.7390 C.3       1 UNK         0.0000
     11 C3          4.6720   -6.4300   -7.2480 C.3       1 UNK         0.0000
     12 C4          3.1320   -8.9160   -7.5960 C.3       1 UNK         0.0000
     13 C5          2.6330   -7.8080   -6.6690 C.3       1 UNK         0.0000
     14 C6          5.6420   -7.1050  -10.5900 C.ar      1 UNK         0.0000
     15 C7          6.6500   -6.4230  -11.2970 C.ar      1 UNK         0.0000
     16 C8          4.0070   -6.7860   -4.9190 C.2       1 UNK         0.0000
     17 C9          7.5730   -5.8940  -10.2940 C.2       1 UNK         0.0000
     18 C10         6.5780   -6.3860  -12.6990 C.ar      1 UNK         0.0000
     19 C11         8.7970   -5.1000  -10.5580 C.ar      1 UNK         0.0000
     20 C12         5.0960   -5.8910   -4.4980 C.2       1 UNK         0.0000
     21 C13         4.6360   -7.6280  -12.5920 C.ar      1 UNK         0.0000
     22 C14         8.6950   -3.7480  -10.8860 C.ar      1 UNK         0.0000
     23 C15        10.0510   -5.7010  -10.4740 C.ar      1 UNK         0.0000
     24 C16         4.8160   -4.6730   -4.0430 C.2       1 UNK         0.0000
     25 C17         9.8340   -3.0120  -11.1320 C.ar      1 UNK         0.0000
     26 C18        11.1870   -4.9610  -10.7250 C.ar      1 UNK         0.0000
     27 C19        11.0830   -3.6150  -11.0520 C.ar      1 UNK         0.0000
     28 C20        12.5460   -1.9260  -10.3980 C.ar      1 UNK         0.0000
     29 C21        12.5720   -0.5920  -10.7830 C.ar      1 UNK         0.0000
     30 C22        12.8660   -2.2740   -9.0930 C.ar      1 UNK         0.0000
     31 C23        12.9200    0.3820   -9.8690 C.ar      1 UNK         0.0000
     32 C24        13.2190   -1.2950   -8.1850 C.ar      1 UNK         0.0000
     33 C25        13.2440    0.0320   -8.5710 C.ar      1 UNK         0.0000
     34 H1          5.7680   -8.2540   -7.5990 H         1 UNK         0.0000
     35 H2          3.3110   -7.5940   -9.2870 H         1 UNK         0.0000
     36 H3          4.2770   -9.0830   -9.4130 H         1 UNK         0.0000
     37 H4          4.1330   -5.6860   -7.8330 H         1 UNK         0.0000
     38 H5          5.5300   -5.9660   -6.7620 H         1 UNK         0.0000
     39 H6          2.2810   -9.4610   -8.0040 H         1 UNK         0.0000
     40 H7          3.7660   -9.6010   -7.0330 H         1 UNK         0.0000
     41 H8          2.1460   -8.2530   -5.8010 H         1 UNK         0.0000
     42 H9          1.9250   -7.1790   -7.2060 H         1 UNK         0.0000
     43 H10         6.1210   -6.2220   -4.5620 H         1 UNK         0.0000
     44 H11         3.8270   -8.1130  -13.1180 H         1 UNK         0.0000
     45 H12         7.7240   -3.2790  -10.9470 H         1 UNK         0.0000
     46 H13        10.1340   -6.7470  -10.2150 H         1 UNK         0.0000
     47 H14         8.1810   -5.1490  -12.9970 H         1 UNK         0.0000
     48 H15         7.5800   -5.8480  -14.4020 H         1 UNK         0.0000
     49 H16         5.6160   -4.0140   -3.7380 H         1 UNK         0.0000
     50 H17         3.7900   -4.3430   -3.9790 H         1 UNK         0.0000
     51 H18         9.7570   -1.9650  -11.3860 H         1 UNK         0.0000
     52 H19        12.1600   -5.4270  -10.6640 H         1 UNK         0.0000
     53 H20        12.3190   -0.3180  -11.7970 H         1 UNK         0.0000
     54 H21        12.8420   -3.3100   -8.7890 H         1 UNK         0.0000
     55 H22        12.9400    1.4210  -10.1680 H         1 UNK         0.0000
     56 H23        13.4730   -1.5660   -7.1700 H         1 UNK         0.0000
     57 H24        13.5170    0.7970   -7.8580 H         1 UNK         0.0000
@<TRIPOS>BOND
     1    1   16 2
     2    2   27 1
     3    2   28 1
     4    3   11 1
     5    3   13 1
     6    3   16 am
     7    4    5 1
     8    4    9 1
     9    4   14 1
    10    5   17 2
    11    6   14 ar
    12    6   21 ar
    13    7   18 ar
    14    7   21 ar
    15    8   18 1
    16    8   47 1
    17    8   48 1
    18    9   10 1
    19    9   11 1
    20    9   34 1
    21   10   12 1
    22   10   35 1
    23   10   36 1
    24   11   37 1
    25   11   38 1
    26   12   13 1
    27   12   39 1
    28   12   40 1
    29   13   41 1
    30   13   42 1
    31   14   15 ar
    32   15   17 1
    33   15   18 ar
    34   16   20 1
    35   17   19 1
    36   19   22 ar
    37   19   23 ar
    38   20   24 2
    39   20   43 1
    40   21   44 1
    41   22   25 ar
    42   22   45 1
    43   23   26 ar
    44   23   46 1
    45   24   49 1
    46   24   50 1
    47   25   27 ar
    48   25   51 1
    49   26   27 ar
    50   26   52 1
    51   28   29 ar
    52   28   30 ar
    53   29   31 ar
    54   29   53 1
    55   30   32 ar
    56   30   54 1
    57   31   33 ar
    58   31   55 1
    59   32   33 ar
    60   32   56 1
    61   33   57 1
