@<TRIPOS>MOLECULE
24821094
   57    61     0     0     0
SMALL
NO_CHARGES

@<TRIPOS>ATOM
      1 O1         13.2210   -2.0210  -13.0050 O.2       1 UNK         0.0000
      2 O2          4.9480   -4.7150   -4.5960 O.3       1 UNK         0.0000
      3 N1         11.6410   -3.4700  -12.4240 N.am      1 UNK         0.0000
      4 N2          8.1600   -4.5560  -11.6560 N.pl3     1 UNK         0.0000
      5 N3          8.0130   -4.3180  -10.2850 N.2       1 UNK         0.0000
      6 N4          6.7390   -5.7740  -13.2910 N.ar      1 UNK         0.0000
      7 N5          4.8020   -6.6860  -12.4140 N.ar      1 UNK         0.0000
      8 N6          4.2110   -6.4800  -10.1410 N.pl3     1 UNK         0.0000
      9 C1          9.2840   -4.1030  -12.4780 C.3       1 UNK         0.0000
     10 C2          9.6640   -5.2010  -13.4740 C.3       1 UNK         0.0000
     11 C3         10.4860   -3.7970  -11.5770 C.3       1 UNK         0.0000
     12 C4         10.8170   -4.7150  -14.3550 C.3       1 UNK         0.0000
     13 C5         12.0330   -4.4140  -13.4790 C.3       1 UNK         0.0000
     14 C6          7.0970   -5.2810  -12.1060 C.ar      1 UNK         0.0000
     15 C7          6.2540   -5.5020  -11.0000 C.ar      1 UNK         0.0000
     16 C8         12.3240   -2.3230  -12.2410 C.2       1 UNK         0.0000
     17 C9          6.8950   -4.8550   -9.8560 C.2       1 UNK         0.0000
     18 C10         5.0720   -6.2340  -11.1940 C.ar      1 UNK         0.0000
     19 C11         6.3800   -4.8180   -8.4660 C.ar      1 UNK         0.0000
     20 C12        11.9840   -1.4360  -11.1170 C.2       1 UNK         0.0000
     21 C13         5.6210   -6.4540  -13.4240 C.ar      1 UNK         0.0000
     22 C14         6.9600   -5.6220   -7.4850 C.ar      1 UNK         0.0000
     23 C15         5.3200   -3.9750   -8.1360 C.ar      1 UNK         0.0000
     24 C16        12.8910   -0.5870  -10.6430 C.2       1 UNK         0.0000
     25 C17         6.4790   -5.5850   -6.1930 C.ar      1 UNK         0.0000
     26 C18         4.8400   -3.9460   -6.8440 C.ar      1 UNK         0.0000
     27 C19         5.4200   -4.7490   -5.8690 C.ar      1 UNK         0.0000
     28 C20         5.6610   -4.0220   -3.6700 C.ar      1 UNK         0.0000
     29 C21         5.2530   -2.7520   -3.2850 C.ar      1 UNK         0.0000
     30 C22         6.7950   -4.5850   -3.1010 C.ar      1 UNK         0.0000
     31 C23         5.9800   -2.0510   -2.3430 C.ar      1 UNK         0.0000
     32 C24         7.5210   -3.8770   -2.1640 C.ar      1 UNK         0.0000
     33 C25         7.1120   -2.6120   -1.7830 C.ar      1 UNK         0.0000
     34 H1          8.9980   -3.2010  -13.0200 H         1 UNK         0.0000
     35 H2          9.9740   -6.0940  -12.9300 H         1 UNK         0.0000
     36 H3          8.8040   -5.4380  -14.0990 H         1 UNK         0.0000
     37 H4         10.7170   -4.6700  -10.9670 H         1 UNK         0.0000
     38 H5         10.2540   -2.9500  -10.9330 H         1 UNK         0.0000
     39 H6         11.0730   -5.4890  -15.0800 H         1 UNK         0.0000
     40 H7         10.5170   -3.8100  -14.8810 H         1 UNK         0.0000
     41 H8         12.8200   -3.9730  -14.0900 H         1 UNK         0.0000
     42 H9         12.3920   -5.3390  -13.0280 H         1 UNK         0.0000
     43 H10        10.9990   -1.4770  -10.6760 H         1 UNK         0.0000
     44 H11         5.3620   -6.8400  -14.4000 H         1 UNK         0.0000
     45 H12         7.7840   -6.2720   -7.7370 H         1 UNK         0.0000
     46 H13         4.8720   -3.3470   -8.8930 H         1 UNK         0.0000
     47 H14         3.4550   -5.8920   -9.9860 H         1 UNK         0.0000
     48 H15         4.3620   -7.2400   -9.5580 H         1 UNK         0.0000
     49 H16        12.6430    0.0610   -9.8150 H         1 UNK         0.0000
     50 H17        13.8760   -0.5460  -11.0850 H         1 UNK         0.0000
     51 H18         6.9270   -6.2080   -5.4330 H         1 UNK         0.0000
     52 H19         4.0160   -3.2970   -6.5880 H         1 UNK         0.0000
     53 H20         4.3690   -2.3130   -3.7230 H         1 UNK         0.0000
     54 H21         7.1110   -5.5750   -3.3940 H         1 UNK         0.0000
     55 H22         5.6630   -1.0620   -2.0430 H         1 UNK         0.0000
     56 H23         8.4060   -4.3130   -1.7240 H         1 UNK         0.0000
     57 H24         7.6790   -2.0610   -1.0460 H         1 UNK         0.0000
@<TRIPOS>BOND
     1    1   16 2
     2    2   27 1
     3    2   28 1
     4    3   11 1
     5    3   13 1
     6    3   16 am
     7    4    5 1
     8    4    9 1
     9    4   14 1
    10    5   17 2
    11    6   14 ar
    12    6   21 ar
    13    7   18 ar
    14    7   21 ar
    15    8   18 1
    16    8   47 1
    17    8   48 1
    18    9   10 1
    19    9   11 1
    20    9   34 1
    21   10   12 1
    22   10   35 1
    23   10   36 1
    24   11   37 1
    25   11   38 1
    26   12   13 1
    27   12   39 1
    28   12   40 1
    29   13   41 1
    30   13   42 1
    31   14   15 ar
    32   15   17 1
    33   15   18 ar
    34   16   20 1
    35   17   19 1
    36   19   22 ar
    37   19   23 ar
    38   20   24 2
    39   20   43 1
    40   21   44 1
    41   22   25 ar
    42   22   45 1
    43   23   26 ar
    44   23   46 1
    45   24   49 1
    46   24   50 1
    47   25   27 ar
    48   25   51 1
    49   26   27 ar
    50   26   52 1
    51   28   29 ar
    52   28   30 ar
    53   29   31 ar
    54   29   53 1
    55   30   32 ar
    56   30   54 1
    57   31   33 ar
    58   31   55 1
    59   32   33 ar
    60   32   56 1
    61   33   57 1
