@<TRIPOS>MOLECULE
24821094
   57    61     0     0     0
SMALL
NO_CHARGES

@<TRIPOS>ATOM
      1 O1          6.7910   -6.0730  -14.8950 O.2       1 UNK         0.0000
      2 O2          6.1180   -3.4670   -2.0520 O.3       1 UNK         0.0000
      3 N1          6.7740   -5.7280  -12.7010 N.am      1 UNK         0.0000
      4 N2          6.1610   -6.6270   -9.1370 N.pl3     1 UNK         0.0000
      5 N3          6.5610   -5.8160   -8.0690 N.2       1 UNK         0.0000
      6 N4          4.3240   -8.2850   -9.3660 N.ar      1 UNK         0.0000
      7 N5          3.0070   -8.5510   -7.4830 N.ar      1 UNK         0.0000
      8 N6          3.3720   -7.3450   -5.4910 N.pl3     1 UNK         0.0000
      9 C1          6.8060   -6.6740  -10.4510 C.3       1 UNK         0.0000
     10 C2          8.2500   -6.1800  -10.3300 C.3       1 UNK         0.0000
     11 C3          6.0430   -5.7720  -11.4280 C.3       1 UNK         0.0000
     12 C4          8.9340   -6.2590  -11.6960 C.3       1 UNK         0.0000
     13 C5          8.1960   -5.3580  -12.6860 C.3       1 UNK         0.0000
     14 C6          5.0830   -7.3710   -8.7620 C.ar      1 UNK         0.0000
     15 C7          4.7870   -7.0210   -7.4310 C.ar      1 UNK         0.0000
     16 C8          6.1540   -6.0260  -13.8600 C.2       1 UNK         0.0000
     17 C9          5.7700   -6.0120   -7.0400 C.2       1 UNK         0.0000
     18 C10         3.7040   -7.6520   -6.7970 C.ar      1 UNK         0.0000
     19 C11         5.8630   -5.3400   -5.7220 C.ar      1 UNK         0.0000
     20 C12         4.7080   -6.2950  -13.8720 C.2       1 UNK         0.0000
     21 C13         3.3200   -8.8490   -8.7310 C.ar      1 UNK         0.0000
     22 C14         5.0300   -4.2600   -5.4290 C.ar      1 UNK         0.0000
     23 C15         6.7770   -5.7890   -4.7710 C.ar      1 UNK         0.0000
     24 C16         4.1080   -6.6550  -15.0040 C.2       1 UNK         0.0000
     25 C17         5.1180   -3.6370   -4.2020 C.ar      1 UNK         0.0000
     26 C18         6.8640   -5.1590   -3.5480 C.ar      1 UNK         0.0000
     27 C19         6.0330   -4.0830   -3.2590 C.ar      1 UNK         0.0000
     28 C20         6.3730   -2.1330   -2.0320 C.ar      1 UNK         0.0000
     29 C21         5.3460   -1.2310   -1.7870 C.ar      1 UNK         0.0000
     30 C22         7.6620   -1.6680   -2.2520 C.ar      1 UNK         0.0000
     31 C23         5.6100    0.1240   -1.7670 C.ar      1 UNK         0.0000
     32 C24         7.9180   -0.3120   -2.2370 C.ar      1 UNK         0.0000
     33 C25         6.8940    0.5840   -1.9920 C.ar      1 UNK         0.0000
     34 H1          6.8010   -7.6980  -10.8230 H         1 UNK         0.0000
     35 H2          8.2520   -5.1470   -9.9810 H         1 UNK         0.0000
     36 H3          8.7880   -6.8040   -9.6170 H         1 UNK         0.0000
     37 H4          5.9680   -4.7670  -11.0150 H         1 UNK         0.0000
     38 H5          5.0450   -6.1770  -11.5940 H         1 UNK         0.0000
     39 H6          9.9690   -5.9290  -11.6050 H         1 UNK         0.0000
     40 H7          8.9110   -7.2870  -12.0550 H         1 UNK         0.0000
     41 H8          8.6180   -5.4910  -13.6820 H         1 UNK         0.0000
     42 H9          8.3000   -4.3190  -12.3770 H         1 UNK         0.0000
     43 H10         4.1330   -6.1970  -12.9640 H         1 UNK         0.0000
     44 H11         2.7260   -9.5860   -9.2520 H         1 UNK         0.0000
     45 H12         4.3170   -3.9130   -6.1620 H         1 UNK         0.0000
     46 H13         7.4200   -6.6290   -4.9930 H         1 UNK         0.0000
     47 H14         3.1150   -8.0510   -4.8770 H         1 UNK         0.0000
     48 H15         3.3970   -6.4230   -5.1870 H         1 UNK         0.0000
     49 H16         3.0460   -6.8480  -15.0140 H         1 UNK         0.0000
     50 H17         4.6840   -6.7530  -15.9120 H         1 UNK         0.0000
     51 H18         4.4740   -2.8000   -3.9750 H         1 UNK         0.0000
     52 H19         7.5760   -5.5030   -2.8110 H         1 UNK         0.0000
     53 H20         4.3430   -1.5900   -1.6110 H         1 UNK         0.0000
     54 H21         8.4640   -2.3680   -2.4380 H         1 UNK         0.0000
     55 H22         4.8110    0.8270   -1.5760 H         1 UNK         0.0000
     56 H23         8.9210    0.0500   -2.4130 H         1 UNK         0.0000
     57 H24         7.0970    1.6450   -1.9770 H         1 UNK         0.0000
@<TRIPOS>BOND
     1    1   16 2
     2    2   27 1
     3    2   28 1
     4    3   11 1
     5    3   13 1
     6    3   16 am
     7    4    5 1
     8    4    9 1
     9    4   14 1
    10    5   17 2
    11    6   14 ar
    12    6   21 ar
    13    7   18 ar
    14    7   21 ar
    15    8   18 1
    16    8   47 1
    17    8   48 1
    18    9   10 1
    19    9   11 1
    20    9   34 1
    21   10   12 1
    22   10   35 1
    23   10   36 1
    24   11   37 1
    25   11   38 1
    26   12   13 1
    27   12   39 1
    28   12   40 1
    29   13   41 1
    30   13   42 1
    31   14   15 ar
    32   15   17 1
    33   15   18 ar
    34   16   20 1
    35   17   19 1
    36   19   22 ar
    37   19   23 ar
    38   20   24 2
    39   20   43 1
    40   21   44 1
    41   22   25 ar
    42   22   45 1
    43   23   26 ar
    44   23   46 1
    45   24   49 1
    46   24   50 1
    47   25   27 ar
    48   25   51 1
    49   26   27 ar
    50   26   52 1
    51   28   29 ar
    52   28   30 ar
    53   29   31 ar
    54   29   53 1
    55   30   32 ar
    56   30   54 1
    57   31   33 ar
    58   31   55 1
    59   32   33 ar
    60   32   56 1
    61   33   57 1
