@<TRIPOS>MOLECULE
24821094
   57    61     0     0     0
SMALL
NO_CHARGES

@<TRIPOS>ATOM
      1 O1          6.4560   -8.5030  -17.6180 O.2       1 UNK         0.0000
      2 O2          4.4090   -5.0690   -4.9580 O.3       1 UNK         0.0000
      3 N1          6.0980   -7.9930  -15.4860 N.am      1 UNK         0.0000
      4 N2          6.5220   -6.0030  -12.3640 N.pl3     1 UNK         0.0000
      5 N3          5.6820   -5.9310  -11.2470 N.2       1 UNK         0.0000
      6 N4          8.9740   -5.6900  -12.6200 N.ar      1 UNK         0.0000
      7 N5         10.1060   -5.1970  -10.6640 N.ar      1 UNK         0.0000
      8 N6          9.0230   -5.0030   -8.5780 N.pl3     1 UNK         0.0000
      9 C1          6.0880   -6.2960  -13.7310 C.3       1 UNK         0.0000
     10 C2          4.5590   -6.3380  -13.7850 C.3       1 UNK         0.0000
     11 C3          6.6470   -7.6560  -14.1660 C.3       1 UNK         0.0000
     12 C4          4.1040   -6.6120  -15.2200 C.3       1 UNK         0.0000
     13 C5          4.6410   -7.9690  -15.6720 C.3       1 UNK         0.0000
     14 C6          7.8060   -5.7530  -11.9810 C.ar      1 UNK         0.0000
     15 C7          7.7820   -5.5230  -10.5930 C.ar      1 UNK         0.0000
     16 C8          6.9160   -8.3140  -16.5080 C.2       1 UNK         0.0000
     17 C9          6.3870   -5.6560  -10.1750 C.2       1 UNK         0.0000
     18 C10         8.9920   -5.2370   -9.9400 C.ar      1 UNK         0.0000
     19 C11         5.8640   -5.5000   -8.7970 C.ar      1 UNK         0.0000
     20 C12         8.3650   -8.4330  -16.2820 C.2       1 UNK         0.0000
     21 C13        10.0820   -5.4190  -11.9660 C.ar      1 UNK         0.0000
     22 C14         5.6020   -6.6280   -8.0180 C.ar      1 UNK         0.0000
     23 C15         5.6400   -4.2280   -8.2740 C.ar      1 UNK         0.0000
     24 C16         8.9600   -9.6160  -16.3980 C.2       1 UNK         0.0000
     25 C17         5.1150   -6.4800   -6.7370 C.ar      1 UNK         0.0000
     26 C18         5.1490   -4.0870   -6.9930 C.ar      1 UNK         0.0000
     27 C19         4.8880   -5.2110   -6.2200 C.ar      1 UNK         0.0000
     28 C20         5.2010   -4.4570   -4.0400 C.ar      1 UNK         0.0000
     29 C21         4.8350   -3.2240   -3.5170 C.ar      1 UNK         0.0000
     30 C22         6.3760   -5.0640   -3.6190 C.ar      1 UNK         0.0000
     31 C23         5.6430   -2.6040   -2.5840 C.ar      1 UNK         0.0000
     32 C24         7.1820   -4.4380   -2.6890 C.ar      1 UNK         0.0000
     33 C25         6.8150   -3.2100   -2.1700 C.ar      1 UNK         0.0000
     34 H1          6.4550   -5.5210  -14.4040 H         1 UNK         0.0000
     35 H2          4.1940   -7.1310  -13.1300 H         1 UNK         0.0000
     36 H3          4.1580   -5.3810  -13.4520 H         1 UNK         0.0000
     37 H4          6.3560   -8.4180  -13.4440 H         1 UNK         0.0000
     38 H5          7.7340   -7.6010  -14.2250 H         1 UNK         0.0000
     39 H6          3.0140   -6.6190  -15.2610 H         1 UNK         0.0000
     40 H7          4.4880   -5.8330  -15.8780 H         1 UNK         0.0000
     41 H8          4.4050   -8.1210  -16.7250 H         1 UNK         0.0000
     42 H9          4.1830   -8.7570  -15.0750 H         1 UNK         0.0000
     43 H10         8.9430   -7.5600  -16.0180 H         1 UNK         0.0000
     44 H11        11.0110   -5.3760  -12.5150 H         1 UNK         0.0000
     45 H12         5.7800   -7.6140   -8.4190 H         1 UNK         0.0000
     46 H13         5.8470   -3.3530   -8.8730 H         1 UNK         0.0000
     47 H14         9.8710   -4.8470   -8.1330 H         1 UNK         0.0000
     48 H15         8.1980   -4.9960   -8.0680 H         1 UNK         0.0000
     49 H16        10.0230   -9.7050  -16.2270 H         1 UNK         0.0000
     50 H17         8.3810  -10.4890  -16.6620 H         1 UNK         0.0000
     51 H18         4.9110   -7.3520   -6.1330 H         1 UNK         0.0000
     52 H19         4.9710   -3.1010   -6.5890 H         1 UNK         0.0000
     53 H20         3.9200   -2.7500   -3.8400 H         1 UNK         0.0000
     54 H21         6.6600   -6.0260   -4.0200 H         1 UNK         0.0000
     55 H22         5.3590   -1.6440   -2.1760 H         1 UNK         0.0000
     56 H23         8.0980   -4.9090   -2.3650 H         1 UNK         0.0000
     57 H24         7.4460   -2.7220   -1.4400 H         1 UNK         0.0000
@<TRIPOS>BOND
     1    1   16 2
     2    2   27 1
     3    2   28 1
     4    3   11 1
     5    3   13 1
     6    3   16 am
     7    4    5 1
     8    4    9 1
     9    4   14 1
    10    5   17 2
    11    6   14 ar
    12    6   21 ar
    13    7   18 ar
    14    7   21 ar
    15    8   18 1
    16    8   47 1
    17    8   48 1
    18    9   10 1
    19    9   11 1
    20    9   34 1
    21   10   12 1
    22   10   35 1
    23   10   36 1
    24   11   37 1
    25   11   38 1
    26   12   13 1
    27   12   39 1
    28   12   40 1
    29   13   41 1
    30   13   42 1
    31   14   15 ar
    32   15   17 1
    33   15   18 ar
    34   16   20 1
    35   17   19 1
    36   19   22 ar
    37   19   23 ar
    38   20   24 2
    39   20   43 1
    40   21   44 1
    41   22   25 ar
    42   22   45 1
    43   23   26 ar
    44   23   46 1
    45   24   49 1
    46   24   50 1
    47   25   27 ar
    48   25   51 1
    49   26   27 ar
    50   26   52 1
    51   28   29 ar
    52   28   30 ar
    53   29   31 ar
    54   29   53 1
    55   30   32 ar
    56   30   54 1
    57   31   33 ar
    58   31   55 1
    59   32   33 ar
    60   32   56 1
    61   33   57 1
