@<TRIPOS>MOLECULE
24821094
   57    61     0     0     0
SMALL
NO_CHARGES

@<TRIPOS>ATOM
      1 O1          0.5890  -11.8900   -9.3760 O.2       1 UNK         0.0000
      2 O2         10.9650   -3.4070  -10.8660 O.3       1 UNK         0.0000
      3 N1          1.9390  -10.1600   -9.7210 N.am      1 UNK         0.0000
      4 N2          5.0240   -8.1250   -9.2440 N.pl3     1 UNK         0.0000
      5 N3          6.1020   -7.5820   -9.9520 N.2       1 UNK         0.0000
      6 N4          4.0090   -7.5320   -7.0540 N.ar      1 UNK         0.0000
      7 N5          5.0040   -5.7500   -5.9660 N.ar      1 UNK         0.0000
      8 N6          6.8440   -4.5770   -6.8590 N.pl3     1 UNK         0.0000
      9 C1          4.2070   -9.2570   -9.6840 C.3       1 UNK         0.0000
     10 C2          4.1870   -9.3100  -11.2130 C.3       1 UNK         0.0000
     11 C3          2.7740   -9.0870   -9.1650 C.3       1 UNK         0.0000
     12 C4          3.3610  -10.5130  -11.6740 C.3       1 UNK         0.0000
     13 C5          1.9240  -10.3600  -11.1770 C.3       1 UNK         0.0000
     14 C6          4.8570   -7.4390   -8.0780 C.ar      1 UNK         0.0000
     15 C7          5.8440   -6.4360   -8.0480 C.ar      1 UNK         0.0000
     16 C8          1.2050  -10.9490   -8.9120 C.2       1 UNK         0.0000
     17 C9          6.6130   -6.5750   -9.2840 C.2       1 UNK         0.0000
     18 C10         5.8940   -5.5770   -6.9380 C.ar      1 UNK         0.0000
     19 C11         7.7630   -5.7380   -9.7020 C.ar      1 UNK         0.0000
     20 C12         1.1510  -10.6740   -7.4680 C.2       1 UNK         0.0000
     21 C13         4.0940   -6.7040   -6.0350 C.ar      1 UNK         0.0000
     22 C14         7.6030   -4.7810  -10.7030 C.ar      1 UNK         0.0000
     23 C15         9.0060   -5.9030   -9.0910 C.ar      1 UNK         0.0000
     24 C16         0.1070  -11.0820   -6.7520 C.2       1 UNK         0.0000
     25 C17         8.6740   -4.0040  -11.0900 C.ar      1 UNK         0.0000
     26 C18        10.0750   -5.1260   -9.4850 C.ar      1 UNK         0.0000
     27 C19         9.9110   -4.1730  -10.4830 C.ar      1 UNK         0.0000
     28 C20        11.3140   -2.3610  -10.0730 C.ar      1 UNK         0.0000
     29 C21        10.5020   -1.2370  -10.0060 C.ar      1 UNK         0.0000
     30 C22        12.4820   -2.4150   -9.3250 C.ar      1 UNK         0.0000
     31 C23        10.8600   -0.1750   -9.1980 C.ar      1 UNK         0.0000
     32 C24        12.8370   -1.3490   -8.5230 C.ar      1 UNK         0.0000
     33 C25        12.0260   -0.2310   -8.4570 C.ar      1 UNK         0.0000
     34 H1          4.6270  -10.1840   -9.2920 H         1 UNK         0.0000
     35 H2          3.7440   -8.3930  -11.6030 H         1 UNK         0.0000
     36 H3          5.2070   -9.4060  -11.5860 H         1 UNK         0.0000
     37 H4          2.3840   -8.1200   -9.4800 H         1 UNK         0.0000
     38 H5          2.7710   -9.1490   -8.0770 H         1 UNK         0.0000
     39 H6          3.3660  -10.5630  -12.7630 H         1 UNK         0.0000
     40 H7          3.7900  -11.4270  -11.2660 H         1 UNK         0.0000
     41 H8          1.3590  -11.2610  -11.4160 H         1 UNK         0.0000
     42 H9          1.4630   -9.4980  -11.6590 H         1 UNK         0.0000
     43 H10         1.9570  -10.1370   -6.9910 H         1 UNK         0.0000
     44 H11         3.3910   -6.8090   -5.2220 H         1 UNK         0.0000
     45 H12         6.6400   -4.6480  -11.1740 H         1 UNK         0.0000
     46 H13         9.1320   -6.6400   -8.3120 H         1 UNK         0.0000
     47 H14         7.5610   -4.5370   -7.5120 H         1 UNK         0.0000
     48 H15         6.7940   -3.9150   -6.1520 H         1 UNK         0.0000
     49 H16         0.0650  -10.8760   -5.6920 H         1 UNK         0.0000
     50 H17        -0.6980  -11.6200   -7.2300 H         1 UNK         0.0000
     51 H18         8.5510   -3.2620  -11.8650 H         1 UNK         0.0000
     52 H19        11.0390   -5.2560   -9.0160 H         1 UNK         0.0000
     53 H20         9.5910   -1.1930  -10.5840 H         1 UNK         0.0000
     54 H21        13.1130   -3.2900   -9.3710 H         1 UNK         0.0000
     55 H22        10.2290    0.7000   -9.1450 H         1 UNK         0.0000
     56 H23        13.7480   -1.3890   -7.9440 H         1 UNK         0.0000
     57 H24        12.3050    0.6020   -7.8270 H         1 UNK         0.0000
@<TRIPOS>BOND
     1    1   16 2
     2    2   27 1
     3    2   28 1
     4    3   11 1
     5    3   13 1
     6    3   16 am
     7    4    5 1
     8    4    9 1
     9    4   14 1
    10    5   17 2
    11    6   14 ar
    12    6   21 ar
    13    7   18 ar
    14    7   21 ar
    15    8   18 1
    16    8   47 1
    17    8   48 1
    18    9   10 1
    19    9   11 1
    20    9   34 1
    21   10   12 1
    22   10   35 1
    23   10   36 1
    24   11   37 1
    25   11   38 1
    26   12   13 1
    27   12   39 1
    28   12   40 1
    29   13   41 1
    30   13   42 1
    31   14   15 ar
    32   15   17 1
    33   15   18 ar
    34   16   20 1
    35   17   19 1
    36   19   22 ar
    37   19   23 ar
    38   20   24 2
    39   20   43 1
    40   21   44 1
    41   22   25 ar
    42   22   45 1
    43   23   26 ar
    44   23   46 1
    45   24   49 1
    46   24   50 1
    47   25   27 ar
    48   25   51 1
    49   26   27 ar
    50   26   52 1
    51   28   29 ar
    52   28   30 ar
    53   29   31 ar
    54   29   53 1
    55   30   32 ar
    56   30   54 1
    57   31   33 ar
    58   31   55 1
    59   32   33 ar
    60   32   56 1
    61   33   57 1
