@<TRIPOS>MOLECULE
24821094
   57    61     0     0     0
SMALL
NO_CHARGES

@<TRIPOS>ATOM
      1 O1         10.1770   -5.1830  -14.2330 O.2       1 UNK         0.0000
      2 O2          4.7500   -4.2820   -3.4470 O.3       1 UNK         0.0000
      3 N1          8.7880   -6.2200  -12.8450 N.am      1 UNK         0.0000
      4 N2          5.6990   -6.5880  -10.7930 N.pl3     1 UNK         0.0000
      5 N3          5.9620   -5.9190   -9.5920 N.2       1 UNK         0.0000
      6 N4          3.8900   -8.1570  -11.4580 N.ar      1 UNK         0.0000
      7 N5          2.3310   -8.6070   -9.8090 N.ar      1 UNK         0.0000
      8 N6          2.4420   -7.6540   -7.6550 N.pl3     1 UNK         0.0000
      9 C1          6.5120   -6.4960  -12.0080 C.3       1 UNK         0.0000
     10 C2          6.4640   -7.8310  -12.7560 C.3       1 UNK         0.0000
     11 C3          7.9630   -6.1800  -11.6300 C.3       1 UNK         0.0000
     12 C4          7.2860   -7.7260  -14.0420 C.3       1 UNK         0.0000
     13 C5          8.7410   -7.4210  -13.6900 C.3       1 UNK         0.0000
     14 C6          4.5720   -7.3410  -10.6540 C.ar      1 UNK         0.0000
     15 C7          4.1050   -7.1420   -9.3410 C.ar      1 UNK         0.0000
     16 C8          9.5680   -5.1740  -13.1810 C.2       1 UNK         0.0000
     17 C9          5.0390   -6.2130   -8.7060 C.2       1 UNK         0.0000
     18 C10         2.9410   -7.8140   -8.9340 C.ar      1 UNK         0.0000
     19 C11         4.9630   -5.7030   -7.3160 C.ar      1 UNK         0.0000
     20 C12         9.6820   -4.0210  -12.2740 C.2       1 UNK         0.0000
     21 C13         2.8040   -8.7640  -11.0320 C.ar      1 UNK         0.0000
     22 C14         5.0590   -4.3340   -7.0690 C.ar      1 UNK         0.0000
     23 C15         4.7900   -6.5910   -6.2550 C.ar      1 UNK         0.0000
     24 C16        10.8820   -3.5570  -11.9370 C.2       1 UNK         0.0000
     25 C17         4.9880   -3.8630   -5.7750 C.ar      1 UNK         0.0000
     26 C18         4.7240   -6.1140   -4.9630 C.ar      1 UNK         0.0000
     27 C19         4.8200   -4.7490   -4.7190 C.ar      1 UNK         0.0000
     28 C20         5.7690   -3.5050   -2.9950 C.ar      1 UNK         0.0000
     29 C21         5.5380   -2.1740   -2.6710 C.ar      1 UNK         0.0000
     30 C22         7.0410   -4.0400   -2.8510 C.ar      1 UNK         0.0000
     31 C23         6.5760   -1.3880   -2.2120 C.ar      1 UNK         0.0000
     32 C24         8.0760   -3.2470   -2.3970 C.ar      1 UNK         0.0000
     33 C25         7.8430   -1.9230   -2.0750 C.ar      1 UNK         0.0000
     34 H1          6.1220   -5.7050  -12.6480 H         1 UNK         0.0000
     35 H2          6.8770   -8.6170  -12.1230 H         1 UNK         0.0000
     36 H3          5.4300   -8.0710  -13.0040 H         1 UNK         0.0000
     37 H4          8.3250   -6.9210  -10.9180 H         1 UNK         0.0000
     38 H5          8.0160   -5.1860  -11.1860 H         1 UNK         0.0000
     39 H6          7.2330   -8.6700  -14.5860 H         1 UNK         0.0000
     40 H7          6.8890   -6.9250  -14.6640 H         1 UNK         0.0000
     41 H8          9.3080   -7.2460  -14.6050 H         1 UNK         0.0000
     42 H9          9.1680   -8.2650  -13.1490 H         1 UNK         0.0000
     43 H10         8.7920   -3.5550  -11.8790 H         1 UNK         0.0000
     44 H11         2.2770   -9.4190  -11.7100 H         1 UNK         0.0000
     45 H12         5.1880   -3.6440   -7.8890 H         1 UNK         0.0000
     46 H13         4.7110   -7.6510   -6.4450 H         1 UNK         0.0000
     47 H14         1.7520   -8.2510   -7.3260 H         1 UNK         0.0000
     48 H15         2.7820   -6.9450   -7.0870 H         1 UNK         0.0000
     49 H16        10.9670   -2.7130  -11.2680 H         1 UNK         0.0000
     50 H17        11.7730   -4.0230  -12.3330 H         1 UNK         0.0000
     51 H18         5.0620   -2.8030   -5.5820 H         1 UNK         0.0000
     52 H19         4.5940   -6.8010   -4.1400 H         1 UNK         0.0000
     53 H20         4.5490   -1.7570   -2.7790 H         1 UNK         0.0000
     54 H21         7.2220   -5.0760   -3.0970 H         1 UNK         0.0000
     55 H22         6.3980   -0.3520   -1.9600 H         1 UNK         0.0000
     56 H23         9.0670   -3.6630   -2.2890 H         1 UNK         0.0000
     57 H24         8.6540   -1.3040   -1.7160 H         1 UNK         0.0000
@<TRIPOS>BOND
     1    1   16 2
     2    2   27 1
     3    2   28 1
     4    3   11 1
     5    3   13 1
     6    3   16 am
     7    4    5 1
     8    4    9 1
     9    4   14 1
    10    5   17 2
    11    6   14 ar
    12    6   21 ar
    13    7   18 ar
    14    7   21 ar
    15    8   18 1
    16    8   47 1
    17    8   48 1
    18    9   10 1
    19    9   11 1
    20    9   34 1
    21   10   12 1
    22   10   35 1
    23   10   36 1
    24   11   37 1
    25   11   38 1
    26   12   13 1
    27   12   39 1
    28   12   40 1
    29   13   41 1
    30   13   42 1
    31   14   15 ar
    32   15   17 1
    33   15   18 ar
    34   16   20 1
    35   17   19 1
    36   19   22 ar
    37   19   23 ar
    38   20   24 2
    39   20   43 1
    40   21   44 1
    41   22   25 ar
    42   22   45 1
    43   23   26 ar
    44   23   46 1
    45   24   49 1
    46   24   50 1
    47   25   27 ar
    48   25   51 1
    49   26   27 ar
    50   26   52 1
    51   28   29 ar
    52   28   30 ar
    53   29   31 ar
    54   29   53 1
    55   30   32 ar
    56   30   54 1
    57   31   33 ar
    58   31   55 1
    59   32   33 ar
    60   32   56 1
    61   33   57 1
