@<TRIPOS>MOLECULE
24821094
   57    61     0     0     0
SMALL
NO_CHARGES

@<TRIPOS>ATOM
      1 O1          0.5840  -11.8380   -9.3610 O.2       1 UNK         0.0000
      2 O2         10.9870   -3.3820  -10.7970 O.3       1 UNK         0.0000
      3 N1          1.9470  -10.1170   -9.6960 N.am      1 UNK         0.0000
      4 N2          5.0400   -8.0990   -9.1960 N.pl3     1 UNK         0.0000
      5 N3          6.1170   -7.5530   -9.9030 N.2       1 UNK         0.0000
      6 N4          4.0310   -7.5210   -6.9990 N.ar      1 UNK         0.0000
      7 N5          5.0330   -5.7490   -5.9000 N.ar      1 UNK         0.0000
      8 N6          6.8730   -4.5730   -6.7900 N.pl3     1 UNK         0.0000
      9 C1          4.2190   -9.2270   -9.6420 C.3       1 UNK         0.0000
     10 C2          4.2100   -9.2790  -11.1720 C.3       1 UNK         0.0000
     11 C3          2.7840   -9.0490   -9.1330 C.3       1 UNK         0.0000
     12 C4          3.3800  -10.4760  -11.6390 C.3       1 UNK         0.0000
     13 C5          1.9410  -10.3150  -11.1520 C.3       1 UNK         0.0000
     14 C6          4.8770   -7.4220   -8.0250 C.ar      1 UNK         0.0000
     15 C7          5.8670   -6.4210   -7.9890 C.ar      1 UNK         0.0000
     16 C8          1.2030  -10.9020   -8.8930 C.2       1 UNK         0.0000
     17 C9          6.6320   -6.5530   -9.2280 C.2       1 UNK         0.0000
     18 C10         5.9200   -5.5700   -6.8740 C.ar      1 UNK         0.0000
     19 C11         7.7830   -5.7150   -9.6420 C.ar      1 UNK         0.0000
     20 C12         1.1400  -10.6260   -7.4490 C.2       1 UNK         0.0000
     21 C13         4.1210   -6.7010   -5.9750 C.ar      1 UNK         0.0000
     22 C14         7.6270   -4.7620  -10.6490 C.ar      1 UNK         0.0000
     23 C15         9.0220   -5.8740   -9.0240 C.ar      1 UNK         0.0000
     24 C16         0.1110  -11.0700   -6.7320 C.2       1 UNK         0.0000
     25 C17         8.6990   -3.9850  -11.0320 C.ar      1 UNK         0.0000
     26 C18        10.0920   -5.0980   -9.4150 C.ar      1 UNK         0.0000
     27 C19         9.9330   -4.1490  -10.4180 C.ar      1 UNK         0.0000
     28 C20        11.3100   -2.3130  -10.0230 C.ar      1 UNK         0.0000
     29 C21        10.4700   -1.2090   -9.9750 C.ar      1 UNK         0.0000
     30 C22        12.4780   -2.3250   -9.2740 C.ar      1 UNK         0.0000
     31 C23        10.8020   -0.1250   -9.1870 C.ar      1 UNK         0.0000
     32 C24        12.8070   -1.2360   -8.4920 C.ar      1 UNK         0.0000
     33 C25        11.9690   -0.1380   -8.4460 C.ar      1 UNK         0.0000
     34 H1          4.6310  -10.1560   -9.2480 H         1 UNK         0.0000
     35 H2          3.7750   -8.3590  -11.5640 H         1 UNK         0.0000
     36 H3          5.2320   -9.3800  -11.5370 H         1 UNK         0.0000
     37 H4          2.4020   -8.0790   -9.4510 H         1 UNK         0.0000
     38 H5          2.7730   -9.1110   -8.0460 H         1 UNK         0.0000
     39 H6          3.3930  -10.5260  -12.7280 H         1 UNK         0.0000
     40 H7          3.8010  -11.3930  -11.2280 H         1 UNK         0.0000
     41 H8          1.3720  -11.2130  -11.3960 H         1 UNK         0.0000
     42 H9          1.4890   -9.4510  -11.6370 H         1 UNK         0.0000
     43 H10         1.9270  -10.0620   -6.9730 H         1 UNK         0.0000
     44 H11         3.4190   -6.8100   -5.1610 H         1 UNK         0.0000
     45 H12         6.6670   -4.6330  -11.1260 H         1 UNK         0.0000
     46 H13         9.1450   -6.6090   -8.2400 H         1 UNK         0.0000
     47 H14         7.6270   -4.5700   -7.4000 H         1 UNK         0.0000
     48 H15         6.7880   -3.8750   -6.1210 H         1 UNK         0.0000
     49 H16         0.0630  -10.8640   -5.6730 H         1 UNK         0.0000
     50 H17        -0.6760  -11.6350   -7.2090 H         1 UNK         0.0000
     51 H18         8.5790   -3.2460  -11.8110 H         1 UNK         0.0000
     52 H19        11.0530   -5.2230   -8.9390 H         1 UNK         0.0000
     53 H20         9.5580   -1.1990  -10.5540 H         1 UNK         0.0000
     54 H21        13.1310   -3.1850   -9.3050 H         1 UNK         0.0000
     55 H22        10.1480    0.7350   -9.1480 H         1 UNK         0.0000
     56 H23        13.7190   -1.2440   -7.9120 H         1 UNK         0.0000
     57 H24        12.2270    0.7120   -7.8300 H         1 UNK         0.0000
@<TRIPOS>BOND
     1    1   16 2
     2    2   27 1
     3    2   28 1
     4    3   11 1
     5    3   13 1
     6    3   16 am
     7    4    5 1
     8    4    9 1
     9    4   14 1
    10    5   17 2
    11    6   14 ar
    12    6   21 ar
    13    7   18 ar
    14    7   21 ar
    15    8   18 1
    16    8   47 1
    17    8   48 1
    18    9   10 1
    19    9   11 1
    20    9   34 1
    21   10   12 1
    22   10   35 1
    23   10   36 1
    24   11   37 1
    25   11   38 1
    26   12   13 1
    27   12   39 1
    28   12   40 1
    29   13   41 1
    30   13   42 1
    31   14   15 ar
    32   15   17 1
    33   15   18 ar
    34   16   20 1
    35   17   19 1
    36   19   22 ar
    37   19   23 ar
    38   20   24 2
    39   20   43 1
    40   21   44 1
    41   22   25 ar
    42   22   45 1
    43   23   26 ar
    44   23   46 1
    45   24   49 1
    46   24   50 1
    47   25   27 ar
    48   25   51 1
    49   26   27 ar
    50   26   52 1
    51   28   29 ar
    52   28   30 ar
    53   29   31 ar
    54   29   53 1
    55   30   32 ar
    56   30   54 1
    57   31   33 ar
    58   31   55 1
    59   32   33 ar
    60   32   56 1
    61   33   57 1
