@<TRIPOS>MOLECULE
24821094
   57    61     0     0     0
SMALL
NO_CHARGES

@<TRIPOS>ATOM
      1 O1          1.2080   -9.3110   -6.2390 O.2       1 UNK         0.0000
      2 O2         12.5390   -3.5050  -10.5640 O.3       1 UNK         0.0000
      3 N1          3.2500   -8.6520   -6.8140 N.am      1 UNK         0.0000
      4 N2          5.7840   -6.9690   -8.9670 N.pl3     1 UNK         0.0000
      5 N3          6.8750   -6.1060   -8.8140 N.2       1 UNK         0.0000
      6 N4          5.2110   -8.6230  -10.7310 N.ar      1 UNK         0.0000
      7 N5          6.7540   -8.7980  -12.4450 N.ar      1 UNK         0.0000
      8 N6          8.7260   -7.5080  -12.5230 N.pl3     1 UNK         0.0000
      9 C1          4.6540   -7.0770   -8.0420 C.3       1 UNK         0.0000
     10 C2          5.0370   -6.4620   -6.6930 C.3       1 UNK         0.0000
     11 C3          4.2960   -8.5540   -7.8410 C.3       1 UNK         0.0000
     12 C4          3.8460   -6.5440   -5.7360 C.3       1 UNK         0.0000
     13 C5          3.4770   -8.0100   -5.5120 C.3       1 UNK         0.0000
     14 C6          5.9340   -7.6880  -10.1150 C.ar      1 UNK         0.0000
     15 C7          7.1480   -7.2800  -10.6990 C.ar      1 UNK         0.0000
     16 C8          2.1020   -9.3120   -7.0640 C.2       1 UNK         0.0000
     17 C9          7.7110   -6.2610   -9.8130 C.2       1 UNK         0.0000
     18 C10         7.5440   -7.8750  -11.9070 C.ar      1 UNK         0.0000
     19 C11         8.9870   -5.5330  -10.0120 C.ar      1 UNK         0.0000
     20 C12         1.9310  -10.0350   -8.3340 C.2       1 UNK         0.0000
     21 C13         5.6230   -9.1520  -11.8620 C.ar      1 UNK         0.0000
     22 C14         9.0170   -4.3760  -10.7900 C.ar      1 UNK         0.0000
     23 C15        10.1570   -6.0000   -9.4160 C.ar      1 UNK         0.0000
     24 C16         1.2000  -11.1450   -8.3730 C.2       1 UNK         0.0000
     25 C17        10.2050   -3.7010  -10.9730 C.ar      1 UNK         0.0000
     26 C18        11.3440   -5.3240   -9.6060 C.ar      1 UNK         0.0000
     27 C19        11.3710   -4.1720  -10.3820 C.ar      1 UNK         0.0000
     28 C20        12.6490   -2.2560  -10.0410 C.ar      1 UNK         0.0000
     29 C21        12.6110   -1.1460  -10.8750 C.ar      1 UNK         0.0000
     30 C22        12.7960   -2.0850   -8.6720 C.ar      1 UNK         0.0000
     31 C23        12.7220    0.1220  -10.3400 C.ar      1 UNK         0.0000
     32 C24        12.9120   -0.8150   -8.1430 C.ar      1 UNK         0.0000
     33 C25        12.8730    0.2880   -8.9760 C.ar      1 UNK         0.0000
     34 H1          3.7940   -6.5470   -8.4530 H         1 UNK         0.0000
     35 H2          5.8810   -7.0080   -6.2720 H         1 UNK         0.0000
     36 H3          5.3160   -5.4180   -6.8370 H         1 UNK         0.0000
     37 H4          5.1790   -9.1020   -7.5160 H         1 UNK         0.0000
     38 H5          3.9280   -8.9700   -8.7780 H         1 UNK         0.0000
     39 H6          4.1120   -6.0860   -4.7840 H         1 UNK         0.0000
     40 H7          2.9950   -6.0190   -6.1680 H         1 UNK         0.0000
     41 H8          2.5680   -8.0690   -4.9130 H         1 UNK         0.0000
     42 H9          4.2920   -8.5140   -4.9940 H         1 UNK         0.0000
     43 H10         2.4020   -9.6660   -9.2320 H         1 UNK         0.0000
     44 H11         5.0110   -9.9070  -12.3350 H         1 UNK         0.0000
     45 H12         8.1110   -4.0090  -11.2480 H         1 UNK         0.0000
     46 H13        10.1360   -6.8940   -8.8090 H         1 UNK         0.0000
     47 H14         8.7900   -6.6550  -12.9800 H         1 UNK         0.0000
     48 H15         9.4910   -8.1040  -12.4970 H         1 UNK         0.0000
     49 H16         1.0770  -11.6780   -9.3050 H         1 UNK         0.0000
     50 H17         0.7280  -11.5140   -7.4740 H         1 UNK         0.0000
     51 H18        10.2300   -2.8050  -11.5750 H         1 UNK         0.0000
     52 H19        12.2520   -5.6870   -9.1490 H         1 UNK         0.0000
     53 H20        12.4930   -1.2760  -11.9410 H         1 UNK         0.0000
     54 H21        12.8200   -2.9460   -8.0200 H         1 UNK         0.0000
     55 H22        12.6920    0.9860  -10.9880 H         1 UNK         0.0000
     56 H23        13.0300   -0.6830   -7.0780 H         1 UNK         0.0000
     57 H24        12.9610    1.2810   -8.5600 H         1 UNK         0.0000
@<TRIPOS>BOND
     1    1   16 2
     2    2   27 1
     3    2   28 1
     4    3   11 1
     5    3   13 1
     6    3   16 am
     7    4    5 1
     8    4    9 1
     9    4   14 1
    10    5   17 2
    11    6   14 ar
    12    6   21 ar
    13    7   18 ar
    14    7   21 ar
    15    8   18 1
    16    8   47 1
    17    8   48 1
    18    9   10 1
    19    9   11 1
    20    9   34 1
    21   10   12 1
    22   10   35 1
    23   10   36 1
    24   11   37 1
    25   11   38 1
    26   12   13 1
    27   12   39 1
    28   12   40 1
    29   13   41 1
    30   13   42 1
    31   14   15 ar
    32   15   17 1
    33   15   18 ar
    34   16   20 1
    35   17   19 1
    36   19   22 ar
    37   19   23 ar
    38   20   24 2
    39   20   43 1
    40   21   44 1
    41   22   25 ar
    42   22   45 1
    43   23   26 ar
    44   23   46 1
    45   24   49 1
    46   24   50 1
    47   25   27 ar
    48   25   51 1
    49   26   27 ar
    50   26   52 1
    51   28   29 ar
    52   28   30 ar
    53   29   31 ar
    54   29   53 1
    55   30   32 ar
    56   30   54 1
    57   31   33 ar
    58   31   55 1
    59   32   33 ar
    60   32   56 1
    61   33   57 1
