@<TRIPOS>MOLECULE
24821094
   57    61     0     0     0
SMALL
NO_CHARGES

@<TRIPOS>ATOM
      1 O1          6.7400   -6.1090  -14.8660 O.2       1 UNK         0.0000
      2 O2          6.0640   -3.4360   -2.0460 O.3       1 UNK         0.0000
      3 N1          6.7280   -5.7610  -12.6730 N.am      1 UNK         0.0000
      4 N2          6.0990   -6.6470   -9.1080 N.pl3     1 UNK         0.0000
      5 N3          6.5000   -5.8290   -8.0460 N.2       1 UNK         0.0000
      6 N4          4.2590   -8.3030   -9.3250 N.ar      1 UNK         0.0000
      7 N5          2.9410   -8.5530   -7.4400 N.ar      1 UNK         0.0000
      8 N6          3.3080   -7.3320   -5.4570 N.pl3     1 UNK         0.0000
      9 C1          6.7440   -6.7050  -10.4210 C.3       1 UNK         0.0000
     10 C2          8.1950   -6.2320  -10.3000 C.3       1 UNK         0.0000
     11 C3          5.9940   -5.7930  -11.4000 C.3       1 UNK         0.0000
     12 C4          8.8790   -6.3230  -11.6660 C.3       1 UNK         0.0000
     13 C5          8.1550   -5.4130  -12.6570 C.3       1 UNK         0.0000
     14 C6          5.0190   -7.3860   -8.7270 C.ar      1 UNK         0.0000
     15 C7          4.7230   -7.0260   -7.3990 C.ar      1 UNK         0.0000
     16 C8          6.1040   -6.0510  -13.8320 C.2       1 UNK         0.0000
     17 C9          5.7090   -6.0160   -7.0160 C.2       1 UNK         0.0000
     18 C10         3.6400   -7.6500   -6.7610 C.ar      1 UNK         0.0000
     19 C11         5.8030   -5.3340   -5.7020 C.ar      1 UNK         0.0000
     20 C12         4.6540   -6.2990  -13.8450 C.2       1 UNK         0.0000
     21 C13         3.2530   -8.8610   -8.6860 C.ar      1 UNK         0.0000
     22 C14         6.7290   -5.7690   -4.7540 C.ar      1 UNK         0.0000
     23 C15         4.9690   -4.2540   -5.4150 C.ar      1 UNK         0.0000
     24 C16         4.0450   -6.6240  -14.9820 C.2       1 UNK         0.0000
     25 C17         6.8130   -5.1330   -3.5340 C.ar      1 UNK         0.0000
     26 C18         5.0550   -3.6260   -4.1910 C.ar      1 UNK         0.0000
     27 C19         5.9780   -4.0610   -3.2480 C.ar      1 UNK         0.0000
     28 C20         6.3260   -2.1030   -2.0360 C.ar      1 UNK         0.0000
     29 C21         5.2960   -1.1930   -1.8360 C.ar      1 UNK         0.0000
     30 C22         7.6240   -1.6480   -2.2200 C.ar      1 UNK         0.0000
     31 C23         5.5660    0.1610   -1.8260 C.ar      1 UNK         0.0000
     32 C24         7.8870   -0.2930   -2.2150 C.ar      1 UNK         0.0000
     33 C25         6.8600    0.6110   -2.0150 C.ar      1 UNK         0.0000
     34 H1          6.7240   -7.7290  -10.7920 H         1 UNK         0.0000
     35 H2          8.2120   -5.1990   -9.9530 H         1 UNK         0.0000
     36 H3          8.7230   -6.8630   -9.5860 H         1 UNK         0.0000
     37 H4          5.9350   -4.7860  -10.9880 H         1 UNK         0.0000
     38 H5          4.9910   -6.1830  -11.5660 H         1 UNK         0.0000
     39 H6          9.9180   -6.0080  -11.5740 H         1 UNK         0.0000
     40 H7          8.8410   -7.3510  -12.0240 H         1 UNK         0.0000
     41 H8          8.5760   -5.5520  -13.6530 H         1 UNK         0.0000
     42 H9          8.2740   -4.3750  -12.3490 H         1 UNK         0.0000
     43 H10         4.0840   -6.2130  -12.9320 H         1 UNK         0.0000
     44 H11         2.6580   -9.6010   -9.2010 H         1 UNK         0.0000
     45 H12         7.3790   -6.6020   -4.9760 H         1 UNK         0.0000
     46 H13         4.2540   -3.9130   -6.1490 H         1 UNK         0.0000
     47 H14         3.1880   -6.4040   -5.2000 H         1 UNK         0.0000
     48 H15         3.1960   -8.0370   -4.7990 H         1 UNK         0.0000
     49 H16         2.9800   -6.8020  -14.9920 H         1 UNK         0.0000
     50 H17         4.6170   -6.7110  -15.8940 H         1 UNK         0.0000
     51 H18         7.5300   -5.4680   -2.7990 H         1 UNK         0.0000
     52 H19         4.4070   -2.7910   -3.9660 H         1 UNK         0.0000
     53 H20         4.2860   -1.5450   -1.6880 H         1 UNK         0.0000
     54 H21         8.4280   -2.3540   -2.3710 H         1 UNK         0.0000
     55 H22         4.7660    0.8700   -1.6710 H         1 UNK         0.0000
     56 H23         8.8960    0.0620   -2.3630 H         1 UNK         0.0000
     57 H24         7.0680    1.6720   -2.0080 H         1 UNK         0.0000
@<TRIPOS>BOND
     1    1   16 2
     2    2   27 1
     3    2   28 1
     4    3   11 1
     5    3   13 1
     6    3   16 am
     7    4    5 1
     8    4    9 1
     9    4   14 1
    10    5   17 2
    11    6   14 ar
    12    6   21 ar
    13    7   18 ar
    14    7   21 ar
    15    8   18 1
    16    8   47 1
    17    8   48 1
    18    9   10 1
    19    9   11 1
    20    9   34 1
    21   10   12 1
    22   10   35 1
    23   10   36 1
    24   11   37 1
    25   11   38 1
    26   12   13 1
    27   12   39 1
    28   12   40 1
    29   13   41 1
    30   13   42 1
    31   14   15 ar
    32   15   17 1
    33   15   18 ar
    34   16   20 1
    35   17   19 1
    36   19   22 ar
    37   19   23 ar
    38   20   24 2
    39   20   43 1
    40   21   44 1
    41   22   25 ar
    42   22   45 1
    43   23   26 ar
    44   23   46 1
    45   24   49 1
    46   24   50 1
    47   25   27 ar
    48   25   51 1
    49   26   27 ar
    50   26   52 1
    51   28   29 ar
    52   28   30 ar
    53   29   31 ar
    54   29   53 1
    55   30   32 ar
    56   30   54 1
    57   31   33 ar
    58   31   55 1
    59   32   33 ar
    60   32   56 1
    61   33   57 1
