@<TRIPOS>MOLECULE
24821094
   57    61     0     0     0
SMALL
NO_CHARGES

@<TRIPOS>ATOM
      1 O1          7.6760   -7.0160  -16.2580 O.2       1 UNK         0.0000
      2 O2          4.5350   -4.2180   -3.6530 O.3       1 UNK         0.0000
      3 N1          7.1300   -6.4710  -14.1760 N.am      1 UNK         0.0000
      4 N2          5.9000   -7.1190  -10.7170 N.pl3     1 UNK         0.0000
      5 N3          6.1160   -6.3850   -9.5460 N.2       1 UNK         0.0000
      6 N4          4.0350   -8.5980  -11.4310 N.ar      1 UNK         0.0000
      7 N5          2.3160   -8.8120   -9.8980 N.ar      1 UNK         0.0000
      8 N6          2.3240   -7.7130   -7.8120 N.pl3     1 UNK         0.0000
      9 C1          6.8150   -7.1770  -11.8600 C.3       1 UNK         0.0000
     10 C2          8.1050   -6.4260  -11.5200 C.3       1 UNK         0.0000
     11 C3          6.1540   -6.5220  -13.0780 C.3       1 UNK         0.0000
     12 C4          9.0750   -6.5140  -12.7010 C.3       1 UNK         0.0000
     13 C5          8.4410   -5.8560  -13.9260 C.3       1 UNK         0.0000
     14 C6          4.7100   -7.7760  -10.6270 C.ar      1 UNK         0.0000
     15 C7          4.1540   -7.4490   -9.3770 C.ar      1 UNK         0.0000
     16 C8          6.8300   -6.9830  -15.3850 C.2       1 UNK         0.0000
     17 C9          5.1030   -6.5460   -8.7260 C.2       1 UNK         0.0000
     18 C10         2.9120   -8.0030   -9.0290 C.ar      1 UNK         0.0000
     19 C11         4.9530   -5.9310   -7.3860 C.ar      1 UNK         0.0000
     20 C12         5.4790   -7.5030  -15.6490 C.2       1 UNK         0.0000
     21 C13         2.8730   -9.0920  -11.0620 C.ar      1 UNK         0.0000
     22 C14         5.0410   -4.5470   -7.2390 C.ar      1 UNK         0.0000
     23 C15         4.7190   -6.7340   -6.2710 C.ar      1 UNK         0.0000
     24 C16         4.9540   -7.4010  -16.8670 C.2       1 UNK         0.0000
     25 C17         4.9010   -3.9780   -5.9900 C.ar      1 UNK         0.0000
     26 C18         4.5850   -6.1600   -5.0250 C.ar      1 UNK         0.0000
     27 C19         4.6730   -4.7810   -4.8810 C.ar      1 UNK         0.0000
     28 C20         5.5940   -3.5380   -3.1410 C.ar      1 UNK         0.0000
     29 C21         5.4600   -2.2010   -2.7910 C.ar      1 UNK         0.0000
     30 C22         6.8110   -4.1800   -2.9610 C.ar      1 UNK         0.0000
     31 C23         6.5380   -1.5140   -2.2700 C.ar      1 UNK         0.0000
     32 C24         7.8870   -3.4860   -2.4440 C.ar      1 UNK         0.0000
     33 C25         7.7510   -2.1550   -2.0960 C.ar      1 UNK         0.0000
     34 H1          7.0480   -8.2160  -12.0890 H         1 UNK         0.0000
     35 H2          7.8740   -5.3800  -11.3160 H         1 UNK         0.0000
     36 H3          8.5640   -6.8740  -10.6390 H         1 UNK         0.0000
     37 H4          5.8390   -5.5100  -12.8230 H         1 UNK         0.0000
     38 H5          5.2900   -7.1100  -13.3850 H         1 UNK         0.0000
     39 H6         10.0020   -5.9990  -12.4500 H         1 UNK         0.0000
     40 H7          9.2870   -7.5590  -12.9200 H         1 UNK         0.0000
     41 H8          9.0850   -6.0060  -14.7930 H         1 UNK         0.0000
     42 H9          8.3160   -4.7900  -13.7410 H         1 UNK         0.0000
     43 H10         4.9130   -7.9640  -14.8540 H         1 UNK         0.0000
     44 H11         2.3540   -9.7550  -11.7390 H         1 UNK         0.0000
     45 H12         5.2170   -3.9220   -8.1010 H         1 UNK         0.0000
     46 H13         4.6460   -7.8070   -6.3830 H         1 UNK         0.0000
     47 H14         1.5640   -8.2330   -7.5050 H         1 UNK         0.0000
     48 H15         2.6700   -6.9910   -7.2650 H         1 UNK         0.0000
     49 H16         3.9610   -7.7790  -17.0600 H         1 UNK         0.0000
     50 H17         5.5210   -6.9400  -17.6630 H         1 UNK         0.0000
     51 H18         4.9680   -2.9060   -5.8750 H         1 UNK         0.0000
     52 H19         4.4080   -6.7820   -4.1590 H         1 UNK         0.0000
     53 H20         4.5130   -1.7010   -2.9260 H         1 UNK         0.0000
     54 H21         6.9170   -5.2220   -3.2270 H         1 UNK         0.0000
     55 H22         6.4350   -0.4730   -1.9970 H         1 UNK         0.0000
     56 H23         8.8360   -3.9850   -2.3070 H         1 UNK         0.0000
     57 H24         8.5930   -1.6150   -1.6890 H         1 UNK         0.0000
@<TRIPOS>BOND
     1    1   16 2
     2    2   27 1
     3    2   28 1
     4    3   11 1
     5    3   13 1
     6    3   16 am
     7    4    5 1
     8    4    9 1
     9    4   14 1
    10    5   17 2
    11    6   14 ar
    12    6   21 ar
    13    7   18 ar
    14    7   21 ar
    15    8   18 1
    16    8   47 1
    17    8   48 1
    18    9   10 1
    19    9   11 1
    20    9   34 1
    21   10   12 1
    22   10   35 1
    23   10   36 1
    24   11   37 1
    25   11   38 1
    26   12   13 1
    27   12   39 1
    28   12   40 1
    29   13   41 1
    30   13   42 1
    31   14   15 ar
    32   15   17 1
    33   15   18 ar
    34   16   20 1
    35   17   19 1
    36   19   22 ar
    37   19   23 ar
    38   20   24 2
    39   20   43 1
    40   21   44 1
    41   22   25 ar
    42   22   45 1
    43   23   26 ar
    44   23   46 1
    45   24   49 1
    46   24   50 1
    47   25   27 ar
    48   25   51 1
    49   26   27 ar
    50   26   52 1
    51   28   29 ar
    52   28   30 ar
    53   29   31 ar
    54   29   53 1
    55   30   32 ar
    56   30   54 1
    57   31   33 ar
    58   31   55 1
    59   32   33 ar
    60   32   56 1
    61   33   57 1
