@<TRIPOS>MOLECULE
24821094
   57    61     0     0     0
SMALL
NO_CHARGES

@<TRIPOS>ATOM
      1 O1          6.7750   -6.0410  -14.9090 O.2       1 UNK         0.0000
      2 O2          6.0850   -3.5040   -2.0500 O.3       1 UNK         0.0000
      3 N1          6.7550   -5.7040  -12.7130 N.am      1 UNK         0.0000
      4 N2          6.1490   -6.6240   -9.1530 N.pl3     1 UNK         0.0000
      5 N3          6.5430   -5.8160   -8.0800 N.2       1 UNK         0.0000
      6 N4          4.3230   -8.2920   -9.3920 N.ar      1 UNK         0.0000
      7 N5          3.0070   -8.5780   -7.5110 N.ar      1 UNK         0.0000
      8 N6          3.3640   -7.3800   -5.5120 N.pl3     1 UNK         0.0000
      9 C1          6.7950   -6.6590  -10.4670 C.3       1 UNK         0.0000
     10 C2          8.2340   -6.1510  -10.3430 C.3       1 UNK         0.0000
     11 C3          6.0230   -5.7610  -11.4400 C.3       1 UNK         0.0000
     12 C4          8.9200   -6.2180  -11.7100 C.3       1 UNK         0.0000
     13 C5          8.1730   -5.3210  -12.6960 C.3       1 UNK         0.0000
     14 C6          5.0760   -7.3760   -8.7820 C.ar      1 UNK         0.0000
     15 C7          4.7760   -7.0360   -7.4500 C.ar      1 UNK         0.0000
     16 C8          6.1380   -6.0040  -13.8740 C.2       1 UNK         0.0000
     17 C9          5.7530   -6.0230   -7.0530 C.2       1 UNK         0.0000
     18 C10         3.6980   -7.6770   -6.8200 C.ar      1 UNK         0.0000
     19 C11         5.8400   -5.3570   -5.7310 C.ar      1 UNK         0.0000
     20 C12         4.6940   -6.2870  -13.8880 C.2       1 UNK         0.0000
     21 C13         3.3220   -8.8670   -8.7610 C.ar      1 UNK         0.0000
     22 C14         6.7720   -5.7940   -4.7890 C.ar      1 UNK         0.0000
     23 C15         4.9960   -4.2900   -5.4290 C.ar      1 UNK         0.0000
     24 C16         4.1010   -6.6570  -15.0190 C.2       1 UNK         0.0000
     25 C17         6.8510   -5.1730   -3.5610 C.ar      1 UNK         0.0000
     26 C18         5.0750   -3.6770   -4.1970 C.ar      1 UNK         0.0000
     27 C19         6.0050   -4.1140   -3.2610 C.ar      1 UNK         0.0000
     28 C20         6.3540   -2.1730   -2.0220 C.ar      1 UNK         0.0000
     29 C21         5.3330   -1.2610   -1.7900 C.ar      1 UNK         0.0000
     30 C22         7.6510   -1.7220   -2.2210 C.ar      1 UNK         0.0000
     31 C23         5.6110    0.0910   -1.7620 C.ar      1 UNK         0.0000
     32 C24         7.9220   -0.3680   -2.1970 C.ar      1 UNK         0.0000
     33 C25         6.9040    0.5380   -1.9650 C.ar      1 UNK         0.0000
     34 H1          6.8000   -7.6820  -10.8430 H         1 UNK         0.0000
     35 H2          8.2260   -5.1200   -9.9910 H         1 UNK         0.0000
     36 H3          8.7780   -6.7730   -9.6320 H         1 UNK         0.0000
     37 H4          5.9390   -4.7580  -11.0230 H         1 UNK         0.0000
     38 H5          5.0290   -6.1740  -11.6090 H         1 UNK         0.0000
     39 H6          9.9510   -5.8780  -11.6170 H         1 UNK         0.0000
     40 H7          8.9060   -7.2450  -12.0730 H         1 UNK         0.0000
     41 H8          8.5970   -5.4450  -13.6920 H         1 UNK         0.0000
     42 H9          8.2670   -4.2820  -12.3830 H         1 UNK         0.0000
     43 H10         4.1170   -6.1900  -12.9800 H         1 UNK         0.0000
     44 H11         2.7340   -9.6050   -9.2860 H         1 UNK         0.0000
     45 H12         7.4310   -6.6160   -5.0220 H         1 UNK         0.0000
     46 H13         4.2760   -3.9470   -6.1580 H         1 UNK         0.0000
     47 H14         3.9910   -7.5690   -4.7960 H         1 UNK         0.0000
     48 H15         2.5020   -6.9810   -5.3100 H         1 UNK         0.0000
     49 H16         3.0400   -6.8610  -15.0300 H         1 UNK         0.0000
     50 H17         4.6790   -6.7540  -15.9260 H         1 UNK         0.0000
     51 H18         7.5720   -5.5100   -2.8310 H         1 UNK         0.0000
     52 H19         4.4180   -2.8530   -3.9600 H         1 UNK         0.0000
     53 H20         4.3240   -1.6090   -1.6320 H         1 UNK         0.0000
     54 H21         8.4490   -2.4290   -2.3960 H         1 UNK         0.0000
     55 H22         4.8180    0.8020   -1.5820 H         1 UNK         0.0000
     56 H23         8.9310   -0.0170   -2.3550 H         1 UNK         0.0000
     57 H24         7.1190    1.5970   -1.9440 H         1 UNK         0.0000
@<TRIPOS>BOND
     1    1   16 2
     2    2   27 1
     3    2   28 1
     4    3   11 1
     5    3   13 1
     6    3   16 am
     7    4    5 1
     8    4    9 1
     9    4   14 1
    10    5   17 2
    11    6   14 ar
    12    6   21 ar
    13    7   18 ar
    14    7   21 ar
    15    8   18 1
    16    8   47 1
    17    8   48 1
    18    9   10 1
    19    9   11 1
    20    9   34 1
    21   10   12 1
    22   10   35 1
    23   10   36 1
    24   11   37 1
    25   11   38 1
    26   12   13 1
    27   12   39 1
    28   12   40 1
    29   13   41 1
    30   13   42 1
    31   14   15 ar
    32   15   17 1
    33   15   18 ar
    34   16   20 1
    35   17   19 1
    36   19   22 ar
    37   19   23 ar
    38   20   24 2
    39   20   43 1
    40   21   44 1
    41   22   25 ar
    42   22   45 1
    43   23   26 ar
    44   23   46 1
    45   24   49 1
    46   24   50 1
    47   25   27 ar
    48   25   51 1
    49   26   27 ar
    50   26   52 1
    51   28   29 ar
    52   28   30 ar
    53   29   31 ar
    54   29   53 1
    55   30   32 ar
    56   30   54 1
    57   31   33 ar
    58   31   55 1
    59   32   33 ar
    60   32   56 1
    61   33   57 1
