@<TRIPOS>MOLECULE
24821094
   57    61     0     0     0
SMALL
NO_CHARGES

@<TRIPOS>ATOM
      1 O1         13.3180   -0.6710  -11.2210 O.2       1 UNK         0.0000
      2 O2          4.1080   -6.4390   -5.7960 O.3       1 UNK         0.0000
      3 N1         11.9370   -2.4100  -11.1720 N.am      1 UNK         0.0000
      4 N2          8.6800   -4.1610  -11.6350 N.pl3     1 UNK         0.0000
      5 N3          8.2400   -4.3460  -10.3200 N.2       1 UNK         0.0000
      6 N4          7.7070   -4.8330  -13.8210 N.ar      1 UNK         0.0000
      7 N5          5.6950   -5.9680  -13.6880 N.ar      1 UNK         0.0000
      8 N6          4.6400   -6.4560  -11.6370 N.pl3     1 UNK         0.0000
      9 C1          9.9160   -3.4800  -12.0260 C.3       1 UNK         0.0000
     10 C2         10.8250   -4.4600  -12.7740 C.3       1 UNK         0.0000
     11 C3         10.6400   -2.9740  -10.7740 C.3       1 UNK         0.0000
     12 C4         12.1020   -3.7410  -13.2120 C.3       1 UNK         0.0000
     13 C5         12.8480   -3.2350  -11.9770 C.3       1 UNK         0.0000
     14 C6          7.7810   -4.7180  -12.4950 C.ar      1 UNK         0.0000
     15 C7          6.7470   -5.2620  -11.7120 C.ar      1 UNK         0.0000
     16 C8         12.2820   -1.1580  -10.8100 C.2       1 UNK         0.0000
     17 C9          7.0960   -4.9880  -10.3180 C.2       1 UNK         0.0000
     18 C10         5.6800   -5.9040  -12.3610 C.ar      1 UNK         0.0000
     19 C11         6.3060   -5.3710   -9.1230 C.ar      1 UNK         0.0000
     20 C12        11.4050   -0.3820   -9.9200 C.2       1 UNK         0.0000
     21 C13         6.6870   -5.4430  -14.3850 C.ar      1 UNK         0.0000
     22 C14         6.1830   -6.7140   -8.7680 C.ar      1 UNK         0.0000
     23 C15         5.6900   -4.3890   -8.3490 C.ar      1 UNK         0.0000
     24 C16        11.8360    0.7610   -9.3930 C.2       1 UNK         0.0000
     25 C17         5.4480   -7.0670   -7.6570 C.ar      1 UNK         0.0000
     26 C18         4.9520   -4.7490   -7.2420 C.ar      1 UNK         0.0000
     27 C19         4.8310   -6.0880   -6.8900 C.ar      1 UNK         0.0000
     28 C20         3.1590   -7.4000   -5.9390 C.ar      1 UNK         0.0000
     29 C21         2.9230   -7.9640   -7.1860 C.ar      1 UNK         0.0000
     30 C22         2.4270   -7.8240   -4.8390 C.ar      1 UNK         0.0000
     31 C23         1.9570   -8.9410   -7.3280 C.ar      1 UNK         0.0000
     32 C24         1.4600   -8.7980   -4.9880 C.ar      1 UNK         0.0000
     33 C25         1.2260   -9.3580   -6.2310 C.ar      1 UNK         0.0000
     34 H1          9.6780   -2.6370  -12.6740 H         1 UNK         0.0000
     35 H2         11.0820   -5.2900  -12.1160 H         1 UNK         0.0000
     36 H3         10.3030   -4.8410  -13.6520 H         1 UNK         0.0000
     37 H4         10.7980   -3.8020  -10.0840 H         1 UNK         0.0000
     38 H5         10.0390   -2.2030  -10.2920 H         1 UNK         0.0000
     39 H6         12.7390   -4.4330  -13.7640 H         1 UNK         0.0000
     40 H7         11.8440   -2.8960  -13.8490 H         1 UNK         0.0000
     41 H8         13.7030   -2.6360  -12.2890 H         1 UNK         0.0000
     42 H9         13.1890   -4.0850  -11.3870 H         1 UNK         0.0000
     43 H10        10.4130   -0.7420   -9.6930 H         1 UNK         0.0000
     44 H11         6.6590   -5.5180  -15.4620 H         1 UNK         0.0000
     45 H12         6.6640   -7.4770   -9.3630 H         1 UNK         0.0000
     46 H13         5.7870   -3.3480   -8.6190 H         1 UNK         0.0000
     47 H14         4.3020   -7.3350  -11.8680 H         1 UNK         0.0000
     48 H15         4.2480   -5.9640  -10.8980 H         1 UNK         0.0000
     49 H16        11.1940    1.3290   -8.7370 H         1 UNK         0.0000
     50 H17        12.8290    1.1200   -9.6230 H         1 UNK         0.0000
     51 H18         5.3530   -8.1070   -7.3810 H         1 UNK         0.0000
     52 H19         4.4700   -3.9890   -6.6430 H         1 UNK         0.0000
     53 H20         3.4930   -7.6380   -8.0430 H         1 UNK         0.0000
     54 H21         2.6130   -7.3910   -3.8670 H         1 UNK         0.0000
     55 H22         1.7720   -9.3810   -8.2970 H         1 UNK         0.0000
     56 H23         0.8870   -9.1250   -4.1330 H         1 UNK         0.0000
     57 H24         0.4710  -10.1220   -6.3450 H         1 UNK         0.0000
@<TRIPOS>BOND
     1    1   16 2
     2    2   27 1
     3    2   28 1
     4    3   11 1
     5    3   13 1
     6    3   16 am
     7    4    5 1
     8    4    9 1
     9    4   14 1
    10    5   17 2
    11    6   14 ar
    12    6   21 ar
    13    7   18 ar
    14    7   21 ar
    15    8   18 1
    16    8   47 1
    17    8   48 1
    18    9   10 1
    19    9   11 1
    20    9   34 1
    21   10   12 1
    22   10   35 1
    23   10   36 1
    24   11   37 1
    25   11   38 1
    26   12   13 1
    27   12   39 1
    28   12   40 1
    29   13   41 1
    30   13   42 1
    31   14   15 ar
    32   15   17 1
    33   15   18 ar
    34   16   20 1
    35   17   19 1
    36   19   22 ar
    37   19   23 ar
    38   20   24 2
    39   20   43 1
    40   21   44 1
    41   22   25 ar
    42   22   45 1
    43   23   26 ar
    44   23   46 1
    45   24   49 1
    46   24   50 1
    47   25   27 ar
    48   25   51 1
    49   26   27 ar
    50   26   52 1
    51   28   29 ar
    52   28   30 ar
    53   29   31 ar
    54   29   53 1
    55   30   32 ar
    56   30   54 1
    57   31   33 ar
    58   31   55 1
    59   32   33 ar
    60   32   56 1
    61   33   57 1
