@<TRIPOS>MOLECULE
24821094
   57    61     0     0     0
SMALL
NO_CHARGES

@<TRIPOS>ATOM
      1 O1         13.1360   -1.9740  -12.9540 O.2       1 UNK         0.0000
      2 O2          4.8050   -4.8910   -4.6770 O.3       1 UNK         0.0000
      3 N1         11.5650   -3.4430  -12.4030 N.am      1 UNK         0.0000
      4 N2          8.0830   -4.5740  -11.7020 N.pl3     1 UNK         0.0000
      5 N3          7.9260   -4.3700  -10.3260 N.2       1 UNK         0.0000
      6 N4          6.6700   -5.7410  -13.3800 N.ar      1 UNK         0.0000
      7 N5          4.7200   -6.6630  -12.5440 N.ar      1 UNK         0.0000
      8 N6          4.1100   -6.5120  -10.2710 N.pl3     1 UNK         0.0000
      9 C1          9.2170   -4.1070  -12.5020 C.3       1 UNK         0.0000
     10 C2          9.6320   -5.2000  -13.4890 C.3       1 UNK         0.0000
     11 C3         10.3970   -3.7850  -11.5780 C.3       1 UNK         0.0000
     12 C4         10.7950   -4.7010  -14.3490 C.3       1 UNK         0.0000
     13 C5         11.9890   -4.3830  -13.4490 C.3       1 UNK         0.0000
     14 C6          7.0200   -5.2800  -12.1790 C.ar      1 UNK         0.0000
     15 C7          6.1660   -5.5250  -11.0870 C.ar      1 UNK         0.0000
     16 C8         12.2290   -2.2870  -12.2070 C.2       1 UNK         0.0000
     17 C9          6.8010   -4.9110   -9.9210 C.2       1 UNK         0.0000
     18 C10         4.9820   -6.2440  -11.3100 C.ar      1 UNK         0.0000
     19 C11         6.2740   -4.9060   -8.5360 C.ar      1 UNK         0.0000
     20 C12        11.8550   -1.4040  -11.0920 C.2       1 UNK         0.0000
     21 C13         5.5490   -6.4110  -13.5400 C.ar      1 UNK         0.0000
     22 C14         5.4110   -3.8910   -8.1200 C.ar      1 UNK         0.0000
     23 C15         6.6350   -5.9180   -7.6470 C.ar      1 UNK         0.0000
     24 C16        12.7650   -0.6020  -10.5450 C.2       1 UNK         0.0000
     25 C17         4.9230   -3.8890   -6.8310 C.ar      1 UNK         0.0000
     26 C18         6.1470   -5.9080   -6.3580 C.ar      1 UNK         0.0000
     27 C19         5.2880   -4.8960   -5.9470 C.ar      1 UNK         0.0000
     28 C20         5.4900   -4.1900   -3.7370 C.ar      1 UNK         0.0000
     29 C21         4.9820   -2.9910   -3.2550 C.ar      1 UNK         0.0000
     30 C22         6.6970   -4.6730   -3.2510 C.ar      1 UNK         0.0000
     31 C23         5.6800   -2.2820   -2.2990 C.ar      1 UNK         0.0000
     32 C24         7.3930   -3.9570   -2.2980 C.ar      1 UNK         0.0000
     33 C25         6.8850   -2.7630   -1.8200 C.ar      1 UNK         0.0000
     34 H1          8.9310   -3.2100  -13.0510 H         1 UNK         0.0000
     35 H2          9.9420   -6.0890  -12.9380 H         1 UNK         0.0000
     36 H3          8.7860   -5.4490  -14.1310 H         1 UNK         0.0000
     37 H4         10.6270   -4.6540  -10.9630 H         1 UNK         0.0000
     38 H5         10.1420   -2.9400  -10.9400 H         1 UNK         0.0000
     39 H6         11.0750   -5.4720  -15.0670 H         1 UNK         0.0000
     40 H7         10.4930   -3.8000  -14.8810 H         1 UNK         0.0000
     41 H8         12.7830   -3.9320  -14.0450 H         1 UNK         0.0000
     42 H9         12.3510   -5.3020  -12.9900 H         1 UNK         0.0000
     43 H10        10.8440   -1.4100  -10.7150 H         1 UNK         0.0000
     44 H11         5.2970   -6.7700  -14.5270 H         1 UNK         0.0000
     45 H12         5.1260   -3.1090   -8.8080 H         1 UNK         0.0000
     46 H13         7.2990   -6.7070   -7.9680 H         1 UNK         0.0000
     47 H14         3.9800   -7.4250   -9.9710 H         1 UNK         0.0000
     48 H15         3.6290   -5.7860   -9.8430 H         1 UNK         0.0000
     49 H16        12.4920    0.0430   -9.7240 H         1 UNK         0.0000
     50 H17        13.7770   -0.5970  -10.9240 H         1 UNK         0.0000
     51 H18         4.2550   -3.1040   -6.5080 H         1 UNK         0.0000
     52 H19         6.4290   -6.6890   -5.6670 H         1 UNK         0.0000
     53 H20         4.0410   -2.6150   -3.6290 H         1 UNK         0.0000
     54 H21         7.0920   -5.6090   -3.6190 H         1 UNK         0.0000
     55 H22         5.2850   -1.3480   -1.9230 H         1 UNK         0.0000
     56 H23         8.3350   -4.3310   -1.9230 H         1 UNK         0.0000
     57 H24         7.4300   -2.2050   -1.0720 H         1 UNK         0.0000
@<TRIPOS>BOND
     1    1   16 2
     2    2   27 1
     3    2   28 1
     4    3   11 1
     5    3   13 1
     6    3   16 am
     7    4    5 1
     8    4    9 1
     9    4   14 1
    10    5   17 2
    11    6   14 ar
    12    6   21 ar
    13    7   18 ar
    14    7   21 ar
    15    8   18 1
    16    8   47 1
    17    8   48 1
    18    9   10 1
    19    9   11 1
    20    9   34 1
    21   10   12 1
    22   10   35 1
    23   10   36 1
    24   11   37 1
    25   11   38 1
    26   12   13 1
    27   12   39 1
    28   12   40 1
    29   13   41 1
    30   13   42 1
    31   14   15 ar
    32   15   17 1
    33   15   18 ar
    34   16   20 1
    35   17   19 1
    36   19   22 ar
    37   19   23 ar
    38   20   24 2
    39   20   43 1
    40   21   44 1
    41   22   25 ar
    42   22   45 1
    43   23   26 ar
    44   23   46 1
    45   24   49 1
    46   24   50 1
    47   25   27 ar
    48   25   51 1
    49   26   27 ar
    50   26   52 1
    51   28   29 ar
    52   28   30 ar
    53   29   31 ar
    54   29   53 1
    55   30   32 ar
    56   30   54 1
    57   31   33 ar
    58   31   55 1
    59   32   33 ar
    60   32   56 1
    61   33   57 1
