@<TRIPOS>MOLECULE
24821094
   57    61     0     0     0
SMALL
NO_CHARGES

@<TRIPOS>ATOM
      1 O1          0.4310  -11.9680  -10.3320 O.2       1 UNK         0.0000
      2 O2          6.8400   -3.6510   -1.9920 O.3       1 UNK         0.0000
      3 N1          1.6890  -10.7960   -8.9260 N.am      1 UNK         0.0000
      4 N2          3.2370   -7.7010   -7.5420 N.pl3     1 UNK         0.0000
      5 N3          3.5230   -7.2110   -6.2630 N.2       1 UNK         0.0000
      6 N4          4.2740   -7.2630   -9.7580 N.ar      1 UNK         0.0000
      7 N5          6.0500   -5.7810   -9.7290 N.ar      1 UNK         0.0000
      8 N6          6.8260   -4.7580   -7.7520 N.pl3     1 UNK         0.0000
      9 C1          2.1700   -8.6500   -7.8660 C.3       1 UNK         0.0000
     10 C2          1.5900   -9.2280   -6.5720 C.3       1 UNK         0.0000
     11 C3          2.7390   -9.7890   -8.7190 C.3       1 UNK         0.0000
     12 C4          0.4530  -10.1950   -6.9080 C.3       1 UNK         0.0000
     13 C5          0.9990  -11.3470   -7.7510 C.3       1 UNK         0.0000
     14 C6          4.1030   -7.1530   -8.4400 C.ar      1 UNK         0.0000
     15 C7          4.9610   -6.3030   -7.7170 C.ar      1 UNK         0.0000
     16 C8          1.3610  -11.2010  -10.1680 C.2       1 UNK         0.0000
     17 C9          4.5400   -6.3850   -6.3190 C.2       1 UNK         0.0000
     18 C10         5.9590   -5.6060   -8.4150 C.ar      1 UNK         0.0000
     19 C11         5.1480   -5.6620   -5.1750 C.ar      1 UNK         0.0000
     20 C12         2.1280  -10.7170  -11.3260 C.2       1 UNK         0.0000
     21 C13         5.2250   -6.5900  -10.3690 C.ar      1 UNK         0.0000
     22 C14         6.2470   -6.2050   -4.5100 C.ar      1 UNK         0.0000
     23 C15         4.6250   -4.4360   -4.7670 C.ar      1 UNK         0.0000
     24 C16         2.3130  -11.5090  -12.3790 C.2       1 UNK         0.0000
     25 C17         6.8090   -5.5310   -3.4470 C.ar      1 UNK         0.0000
     26 C18         5.1890   -3.7690   -3.7000 C.ar      1 UNK         0.0000
     27 C19         6.2840   -4.3120   -3.0390 C.ar      1 UNK         0.0000
     28 C20         6.7550   -2.2950   -1.9760 C.ar      1 UNK         0.0000
     29 C21         5.5350   -1.6770   -1.7320 C.ar      1 UNK         0.0000
     30 C22         7.8870   -1.5240   -2.1980 C.ar      1 UNK         0.0000
     31 C23         5.4520   -0.2990   -1.7150 C.ar      1 UNK         0.0000
     32 C24         7.7970   -0.1460   -2.1860 C.ar      1 UNK         0.0000
     33 C25         6.5810    0.4660   -1.9420 C.ar      1 UNK         0.0000
     34 H1          1.3830   -8.1380   -8.4210 H         1 UNK         0.0000
     35 H2          2.3720   -9.7610   -6.0310 H         1 UNK         0.0000
     36 H3          1.2070   -8.4180   -5.9520 H         1 UNK         0.0000
     37 H4          3.5850  -10.2430   -8.2050 H         1 UNK         0.0000
     38 H5          3.0620   -9.3960   -9.6830 H         1 UNK         0.0000
     39 H6          0.0260  -10.5890   -5.9860 H         1 UNK         0.0000
     40 H7         -0.3180   -9.6690   -7.4700 H         1 UNK         0.0000
     41 H8          0.1750  -11.9820   -8.0770 H         1 UNK         0.0000
     42 H9          1.7000  -11.9310   -7.1560 H         1 UNK         0.0000
     43 H10         2.5440   -9.7210  -11.3190 H         1 UNK         0.0000
     44 H11         5.3340   -6.7020  -11.4370 H         1 UNK         0.0000
     45 H12         6.6570   -7.1520   -4.8280 H         1 UNK         0.0000
     46 H13         3.7770   -4.0100   -5.2830 H         1 UNK         0.0000
     47 H14         6.8150   -4.7150   -6.7830 H         1 UNK         0.0000
     48 H15         7.4460   -4.2070   -8.2550 H         1 UNK         0.0000
     49 H16         2.8800  -11.1550  -13.2280 H         1 UNK         0.0000
     50 H17         1.8960  -12.5050  -12.3850 H         1 UNK         0.0000
     51 H18         7.6600   -5.9510   -2.9310 H         1 UNK         0.0000
     52 H19         4.7830   -2.8200   -3.3800 H         1 UNK         0.0000
     53 H20         4.6540   -2.2750   -1.5540 H         1 UNK         0.0000
     54 H21         8.8380   -2.0020   -2.3830 H         1 UNK         0.0000
     55 H22         4.5040    0.1830   -1.5250 H         1 UNK         0.0000
     56 H23         8.6770    0.4540   -2.3630 H         1 UNK         0.0000
     57 H24         6.5140    1.5450   -1.9300 H         1 UNK         0.0000
@<TRIPOS>BOND
     1    1   16 2
     2    2   27 1
     3    2   28 1
     4    3   11 1
     5    3   13 1
     6    3   16 am
     7    4    5 1
     8    4    9 1
     9    4   14 1
    10    5   17 2
    11    6   14 ar
    12    6   21 ar
    13    7   18 ar
    14    7   21 ar
    15    8   18 1
    16    8   47 1
    17    8   48 1
    18    9   10 1
    19    9   11 1
    20    9   34 1
    21   10   12 1
    22   10   35 1
    23   10   36 1
    24   11   37 1
    25   11   38 1
    26   12   13 1
    27   12   39 1
    28   12   40 1
    29   13   41 1
    30   13   42 1
    31   14   15 ar
    32   15   17 1
    33   15   18 ar
    34   16   20 1
    35   17   19 1
    36   19   22 ar
    37   19   23 ar
    38   20   24 2
    39   20   43 1
    40   21   44 1
    41   22   25 ar
    42   22   45 1
    43   23   26 ar
    44   23   46 1
    45   24   49 1
    46   24   50 1
    47   25   27 ar
    48   25   51 1
    49   26   27 ar
    50   26   52 1
    51   28   29 ar
    52   28   30 ar
    53   29   31 ar
    54   29   53 1
    55   30   32 ar
    56   30   54 1
    57   31   33 ar
    58   31   55 1
    59   32   33 ar
    60   32   56 1
    61   33   57 1
