@<TRIPOS>MOLECULE
24821094
   57    61     0     0     0
SMALL
NO_CHARGES

@<TRIPOS>ATOM
      1 O1          7.3140   -6.3940  -13.4570 O.2       1 UNK         0.0000
      2 O2          6.8200   -3.4530   -1.7090 O.3       1 UNK         0.0000
      3 N1          6.8200   -7.0420  -11.3900 N.am      1 UNK         0.0000
      4 N2          4.8130   -7.1080   -8.2510 N.pl3     1 UNK         0.0000
      5 N3          5.5500   -6.2880   -7.3890 N.2       1 UNK         0.0000
      6 N4          2.7720   -8.4810   -7.8950 N.ar      1 UNK         0.0000
      7 N5          1.9020   -8.4020   -5.7530 N.ar      1 UNK         0.0000
      8 N6          2.8710   -7.1170   -4.0300 N.pl3     1 UNK         0.0000
      9 C1          5.1250   -7.3510   -9.6610 C.3       1 UNK         0.0000
     10 C2          5.2350   -8.8580   -9.9080 C.3       1 UNK         0.0000
     11 C3          6.4580   -6.6810  -10.0130 C.3       1 UNK         0.0000
     12 C4          5.5290   -9.1140  -11.3880 C.3       1 UNK         0.0000
     13 C5          6.8610   -8.4630  -11.7600 C.3       1 UNK         0.0000
     14 C6          3.7620   -7.6490   -7.5720 C.ar      1 UNK         0.0000
     15 C7          3.8290   -7.1590   -6.2550 C.ar      1 UNK         0.0000
     16 C8          7.1030   -6.0880  -12.2990 C.2       1 UNK         0.0000
     17 C9          5.0000   -6.2840   -6.1980 C.2       1 UNK         0.0000
     18 C10         2.8500   -7.5690   -5.3360 C.ar      1 UNK         0.0000
     19 C11         5.4800   -5.5360   -5.0120 C.ar      1 UNK         0.0000
     20 C12         7.1570   -4.6760  -11.8890 C.2       1 UNK         0.0000
     21 C13         1.8770   -8.8370   -7.0000 C.ar      1 UNK         0.0000
     22 C14         6.4140   -6.1150   -4.1520 C.ar      1 UNK         0.0000
     23 C15         5.0050   -4.2510   -4.7570 C.ar      1 UNK         0.0000
     24 C16         8.3010   -4.0020  -11.9740 C.2       1 UNK         0.0000
     25 C17         6.8590   -5.4160   -3.0500 C.ar      1 UNK         0.0000
     26 C18         5.4500   -3.5590   -3.6500 C.ar      1 UNK         0.0000
     27 C19         6.3800   -4.1380   -2.7960 C.ar      1 UNK         0.0000
     28 C20         6.8070   -2.0960   -1.7630 C.ar      1 UNK         0.0000
     29 C21         7.9290   -1.4050   -2.1990 C.ar      1 UNK         0.0000
     30 C22         5.6690   -1.3960   -1.3860 C.ar      1 UNK         0.0000
     31 C23         7.9120   -0.0250   -2.2520 C.ar      1 UNK         0.0000
     32 C24         5.6590   -0.0160   -1.4370 C.ar      1 UNK         0.0000
     33 C25         6.7780    0.6690   -1.8720 C.ar      1 UNK         0.0000
     34 H1          4.3340   -6.9360  -10.2860 H         1 UNK         0.0000
     35 H2          6.0430   -9.2670   -9.3010 H         1 UNK         0.0000
     36 H3          4.2970   -9.3400   -9.6350 H         1 UNK         0.0000
     37 H4          7.2320   -7.0280   -9.3290 H         1 UNK         0.0000
     38 H5          6.3550   -5.5990   -9.9340 H         1 UNK         0.0000
     39 H6          5.5850  -10.1880  -11.5670 H         1 UNK         0.0000
     40 H7          4.7340   -8.6840  -11.9960 H         1 UNK         0.0000
     41 H8          7.0230   -8.5570  -12.8340 H         1 UNK         0.0000
     42 H9          7.6690   -8.9580  -11.2210 H         1 UNK         0.0000
     43 H10         6.2700   -4.1880  -11.5160 H         1 UNK         0.0000
     44 H11         1.0880   -9.5140   -7.2960 H         1 UNK         0.0000
     45 H12         6.7880   -7.1080   -4.3500 H         1 UNK         0.0000
     46 H13         4.2850   -3.7980   -5.4240 H         1 UNK         0.0000
     47 H14         2.9890   -6.1720   -3.8460 H         1 UNK         0.0000
     48 H15         2.7680   -7.7450   -3.2980 H         1 UNK         0.0000
     49 H16         8.3420   -2.9670  -11.6690 H         1 UNK         0.0000
     50 H17         9.1890   -4.4910  -12.3480 H         1 UNK         0.0000
     51 H18         7.5810   -5.8630   -2.3830 H         1 UNK         0.0000
     52 H19         5.0790   -2.5650   -3.4490 H         1 UNK         0.0000
     53 H20         8.8150   -1.9470   -2.4960 H         1 UNK         0.0000
     54 H21         4.7920   -1.9310   -1.0520 H         1 UNK         0.0000
     55 H22         8.7850    0.5130   -2.5910 H         1 UNK         0.0000
     56 H23         4.7740    0.5280   -1.1400 H         1 UNK         0.0000
     57 H24         6.7670    1.7490   -1.9130 H         1 UNK         0.0000
@<TRIPOS>BOND
     1    1   16 2
     2    2   27 1
     3    2   28 1
     4    3   11 1
     5    3   13 1
     6    3   16 am
     7    4    5 1
     8    4    9 1
     9    4   14 1
    10    5   17 2
    11    6   14 ar
    12    6   21 ar
    13    7   18 ar
    14    7   21 ar
    15    8   18 1
    16    8   47 1
    17    8   48 1
    18    9   10 1
    19    9   11 1
    20    9   34 1
    21   10   12 1
    22   10   35 1
    23   10   36 1
    24   11   37 1
    25   11   38 1
    26   12   13 1
    27   12   39 1
    28   12   40 1
    29   13   41 1
    30   13   42 1
    31   14   15 ar
    32   15   17 1
    33   15   18 ar
    34   16   20 1
    35   17   19 1
    36   19   22 ar
    37   19   23 ar
    38   20   24 2
    39   20   43 1
    40   21   44 1
    41   22   25 ar
    42   22   45 1
    43   23   26 ar
    44   23   46 1
    45   24   49 1
    46   24   50 1
    47   25   27 ar
    48   25   51 1
    49   26   27 ar
    50   26   52 1
    51   28   29 ar
    52   28   30 ar
    53   29   31 ar
    54   29   53 1
    55   30   32 ar
    56   30   54 1
    57   31   33 ar
    58   31   55 1
    59   32   33 ar
    60   32   56 1
    61   33   57 1
