@<TRIPOS>MOLECULE
24821094
   57    61     0     0     0
SMALL
NO_CHARGES

@<TRIPOS>ATOM
      1 O1         13.2040   -1.0680   -9.1220 O.2       1 UNK         0.0000
      2 O2          3.0940   -8.5620   -8.2760 O.3       1 UNK         0.0000
      3 N1         11.8130   -2.7860   -9.3390 N.am      1 UNK         0.0000
      4 N2          9.3390   -4.9360  -11.1120 N.pl3     1 UNK         0.0000
      5 N3          8.4930   -5.5310  -10.1700 N.2       1 UNK         0.0000
      6 N4          9.1250   -4.6160  -13.5670 N.ar      1 UNK         0.0000
      7 N5          7.1700   -5.4360  -14.4930 N.ar      1 UNK         0.0000
      8 N6          5.5000   -6.4970  -13.2120 N.pl3     1 UNK         0.0000
      9 C1         10.6410   -4.3340  -10.8190 C.3       1 UNK         0.0000
     10 C2         11.6140   -5.4200  -10.3520 C.3       1 UNK         0.0000
     11 C3         10.4830   -3.2860   -9.7110 C.3       1 UNK         0.0000
     12 C4         12.9840   -4.7970  -10.0770 C.3       1 UNK         0.0000
     13 C5         12.8530   -3.7550   -8.9670 C.3       1 UNK         0.0000
     14 C6          8.7650   -5.0090  -12.3460 C.ar      1 UNK         0.0000
     15 C7          7.5260   -5.6590  -12.1840 C.ar      1 UNK         0.0000
     16 C8         12.0760   -1.4650   -9.3440 C.2       1 UNK         0.0000
     17 C9          7.4050   -5.9670  -10.7600 C.2       1 UNK         0.0000
     18 C10         6.7240   -5.8640  -13.3170 C.ar      1 UNK         0.0000
     19 C11         6.2650   -6.6530  -10.1030 C.ar      1 UNK         0.0000
     20 C12        10.9990   -0.5020   -9.6200 C.2       1 UNK         0.0000
     21 C13         8.3390   -4.8310  -14.6000 C.ar      1 UNK         0.0000
     22 C14         6.3520   -8.0100   -9.7920 C.ar      1 UNK         0.0000
     23 C15         5.1080   -5.9410   -9.7910 C.ar      1 UNK         0.0000
     24 C16        10.9500    0.6500   -8.9550 C.2       1 UNK         0.0000
     25 C17         5.2910   -8.6440   -9.1820 C.ar      1 UNK         0.0000
     26 C18         4.0480   -6.5830   -9.1860 C.ar      1 UNK         0.0000
     27 C19         4.1380   -7.9350   -8.8770 C.ar      1 UNK         0.0000
     28 C20         2.8400   -8.2740   -6.9740 C.ar      1 UNK         0.0000
     29 C21         3.7900   -7.6080   -6.2100 C.ar      1 UNK         0.0000
     30 C22         1.6280   -8.6380   -6.4040 C.ar      1 UNK         0.0000
     31 C23         3.5280   -7.3160   -4.8860 C.ar      1 UNK         0.0000
     32 C24         1.3740   -8.3480   -5.0780 C.ar      1 UNK         0.0000
     33 C25         2.3220   -7.6850   -4.3200 C.ar      1 UNK         0.0000
     34 H1         11.0320   -3.8560  -11.7170 H         1 UNK         0.0000
     35 H2         11.2340   -5.8800   -9.4400 H         1 UNK         0.0000
     36 H3         11.7090   -6.1790  -11.1290 H         1 UNK         0.0000
     37 H4         10.0080   -3.7430   -8.8420 H         1 UNK         0.0000
     38 H5          9.8710   -2.4610  -10.0740 H         1 UNK         0.0000
     39 H6         13.6820   -5.5750   -9.7670 H         1 UNK         0.0000
     40 H7         13.3530   -4.3160  -10.9820 H         1 UNK         0.0000
     41 H8         13.8040   -3.2390   -8.8390 H         1 UNK         0.0000
     42 H9         12.5750   -4.2500   -8.0370 H         1 UNK         0.0000
     43 H10        10.2460   -0.7310  -10.3590 H         1 UNK         0.0000
     44 H11         8.6630   -4.4990  -15.5760 H         1 UNK         0.0000
     45 H12         7.2500   -8.5620  -10.0280 H         1 UNK         0.0000
     46 H13         5.0400   -4.8890  -10.0270 H         1 UNK         0.0000
     47 H14         5.4570   -7.4660  -13.1690 H         1 UNK         0.0000
     48 H15         4.6830   -5.9740  -13.1810 H         1 UNK         0.0000
     49 H16        10.1570    1.3550   -9.1550 H         1 UNK         0.0000
     50 H17        11.7050    0.8790   -8.2170 H         1 UNK         0.0000
     51 H18         5.3570   -9.6950   -8.9410 H         1 UNK         0.0000
     52 H19         3.1490   -6.0340   -8.9470 H         1 UNK         0.0000
     53 H20         4.7320   -7.3200   -6.6520 H         1 UNK         0.0000
     54 H21         0.8850   -9.1500   -6.9970 H         1 UNK         0.0000
     55 H22         4.2670   -6.7990   -4.2910 H         1 UNK         0.0000
     56 H23         0.4320   -8.6350   -4.6340 H         1 UNK         0.0000
     57 H24         2.1200   -7.4560   -3.2840 H         1 UNK         0.0000
@<TRIPOS>BOND
     1    1   16 2
     2    2   27 1
     3    2   28 1
     4    3   11 1
     5    3   13 1
     6    3   16 am
     7    4    5 1
     8    4    9 1
     9    4   14 1
    10    5   17 2
    11    6   14 ar
    12    6   21 ar
    13    7   18 ar
    14    7   21 ar
    15    8   18 1
    16    8   47 1
    17    8   48 1
    18    9   10 1
    19    9   11 1
    20    9   34 1
    21   10   12 1
    22   10   35 1
    23   10   36 1
    24   11   37 1
    25   11   38 1
    26   12   13 1
    27   12   39 1
    28   12   40 1
    29   13   41 1
    30   13   42 1
    31   14   15 ar
    32   15   17 1
    33   15   18 ar
    34   16   20 1
    35   17   19 1
    36   19   22 ar
    37   19   23 ar
    38   20   24 2
    39   20   43 1
    40   21   44 1
    41   22   25 ar
    42   22   45 1
    43   23   26 ar
    44   23   46 1
    45   24   49 1
    46   24   50 1
    47   25   27 ar
    48   25   51 1
    49   26   27 ar
    50   26   52 1
    51   28   29 ar
    52   28   30 ar
    53   29   31 ar
    54   29   53 1
    55   30   32 ar
    56   30   54 1
    57   31   33 ar
    58   31   55 1
    59   32   33 ar
    60   32   56 1
    61   33   57 1
