# created with PyMOL 2.4.1
@<TRIPOS>MOLECULE
25174101
55 58 1                 
SMALL
USER_CHARGES
@<TRIPOS>ATOM
1	   O	-0.003	-9.474	3.651	O.2	1	UNK0	0.000	
2	   N	3.401	-6.776	3.760	N.pl3	1	UNK0	0.000	
3	   N	4.629	-7.297	3.594	N.2	1	UNK0	0.000	
4	   N	1.028	-7.385	3.858	N.pl3	1	UNK0	0.000	
5	   N	-1.267	-7.536	4.013	N.pl3	1	UNK0	0.000	
6	   N	1.601	-2.500	2.358	N.pl3	1	UNK0	0.000	
7	   C	5.506	-9.532	3.220	C.3	1	UNK0	0.000	
8	   C	4.386	-8.600	3.433	C.2	1	UNK0	0.000	
9	   C	5.387	-10.286	1.852	C.3	1	UNK0	0.000	
10	   C	5.576	-10.628	4.338	C.3	1	UNK0	0.000	
11	   C	6.943	-8.891	3.200	C.3	1	UNK0	0.000	
12	   C	3.014	-8.909	3.495	C.2	1	UNK0	0.000	
13	   C	2.399	-7.700	3.710	C.2	1	UNK0	0.000	
14	   C	3.256	-5.402	3.961	C.2	1	UNK0	0.000	
15	   C	2.505	-4.642	3.064	C.2	1	UNK0	0.000	
16	   C	3.861	-4.790	5.058	C.2	1	UNK0	0.000	
17	   C	-0.069	-8.260	3.822	C.2	1	UNK0	0.000	
18	   C	-2.581	-8.018	4.048	C.2	1	UNK0	0.000	
19	   C	-3.669	-7.232	3.636	C.2	1	UNK0	0.000	
20	   C	2.360	-3.269	3.265	C.2	1	UNK0	0.000	
21	   C	-4.975	-7.773	3.694	C.2	1	UNK0	0.000	
22	   C	3.716	-3.417	5.259	C.2	1	UNK0	0.000	
23	   C	2.966	-2.657	4.362	C.2	1	UNK0	0.000	
24	   C	-2.778	-9.320	4.510	C.2	1	UNK0	0.000	
25	   C	-3.490	-5.920	3.167	C.2	1	UNK0	0.000	
26	   C	-5.155	-9.085	4.162	C.2	1	UNK0	0.000	
27	   C	-4.063	-9.852	4.567	C.2	1	UNK0	0.000	
28	   C	-6.064	-6.987	3.282	C.2	1	UNK0	0.000	
29	   C	-4.582	-5.153	2.762	C.2	1	UNK0	0.000	
30	   C	-5.867	-5.685	2.819	C.2	1	UNK0	0.000	
31	   H	4.460	-10.868	1.801	 H	1	UNK0	0.000	
32	   H	5.377	-9.575	1.017	 H	1	UNK0	0.000	
33	   H	6.223	-10.979	1.699	 H	1	UNK0	0.000	
34	   H	6.410	-11.319	4.174	 H	1	UNK0	0.000	
35	   H	5.704	-10.167	5.325	 H	1	UNK0	0.000	
36	   H	4.655	-11.221	4.367	 H	1	UNK0	0.000	
37	   H	7.720	-9.646	3.037	 H	1	UNK0	0.000	
38	   H	7.025	-8.146	2.400	 H	1	UNK0	0.000	
39	   H	7.158	-8.387	4.149	 H	1	UNK0	0.000	
40	   H	2.548	-9.879	3.398	 H	1	UNK0	0.000	
41	   H	0.821	-6.406	4.031	 H	1	UNK0	0.000	
42	   H	2.038	-5.111	2.200	 H	1	UNK0	0.000	
43	   H	4.447	-5.368	5.769	 H	1	UNK0	0.000	
44	   H	-1.155	-6.530	3.948	 H	1	UNK0	0.000	
45	   H	4.187	-2.941	6.113	 H	1	UNK0	0.000	
46	   H	2.860	-1.588	4.529	 H	1	UNK0	0.000	
47	   H	-1.966	-9.939	4.876	 H	1	UNK0	0.000	
48	   H	-2.513	-5.451	3.088	 H	1	UNK0	0.000	
49	   H	-6.151	-9.521	4.217	 H	1	UNK0	0.000	
50	   H	-4.217	-10.862	4.936	 H	1	UNK0	0.000	
51	   H	-7.077	-7.382	3.317	 H	1	UNK0	0.000	
52	   H	-4.430	-4.140	2.400	 H	1	UNK0	0.000	
53	   H	-6.717	-5.088	2.503	 H	1	UNK0	0.000	
54	   H	1.495	-1.505	2.504	 H	1	UNK0	0.000	
55	   H	1.160	-2.943	1.563	 H	1	UNK0	0.000	
@<TRIPOS>BOND
1 1 17 2
2 2 3 1
3 2 13 1
4 2 14 1
5 3 8 2
6 4 13 1
7 4 17 1
8 4 41 1
9 5 17 1
10 5 18 1
11 5 44 1
12 6 20 1
13 6 54 1
14 6 55 1
15 7 8 1
16 7 9 1
17 7 10 1
18 7 11 1
19 8 12 1
20 9 31 1
21 9 32 1
22 9 33 1
23 10 34 1
24 10 35 1
25 10 36 1
26 11 37 1
27 11 38 1
28 11 39 1
29 12 13 2
30 12 40 1
31 14 15 1
32 14 16 2
33 15 20 2
34 15 42 1
35 16 22 1
36 16 43 1
37 18 19 1
38 18 24 2
39 19 21 1
40 19 25 2
41 20 23 1
42 21 26 1
43 21 28 2
44 22 23 2
45 22 45 1
46 23 46 1
47 24 27 1
48 24 47 1
49 25 29 1
50 25 48 1
51 26 27 2
52 26 49 1
53 27 50 1
54 28 30 1
55 28 51 1
56 29 30 2
57 29 52 1
58 30 53 1
@<TRIPOS>SUBSTRUCTURE
1	UNK0	1	GROUP	1 ****	UNK
