# created with PyMOL 2.4.1
@<TRIPOS>MOLECULE
25174101
55 58 1                 
SMALL
USER_CHARGES
@<TRIPOS>ATOM
1	   O	5.134	-4.770	-4.327	O.2	1	UNK0	0.000	
2	   N	5.188	-7.071	-8.012	N.pl3	1	UNK0	0.000	
3	   N	4.013	-7.465	-8.531	N.2	1	UNK0	0.000	
4	   N	6.167	-5.837	-6.133	N.pl3	1	UNK0	0.000	
5	   N	7.465	-4.772	-4.553	N.pl3	1	UNK0	0.000	
6	   N	9.289	-5.725	-10.217	N.pl3	1	UNK0	0.000	
7	   C	1.683	-7.204	-7.892	C.3	1	UNK0	0.000	
8	   C	3.120	-6.976	-7.666	C.2	1	UNK0	0.000	
9	   C	0.894	-5.858	-8.042	C.3	1	UNK0	0.000	
10	   C	1.022	-7.988	-6.707	C.3	1	UNK0	0.000	
11	   C	1.308	-8.031	-9.177	C.3	1	UNK0	0.000	
12	   C	3.720	-6.275	-6.603	C.2	1	UNK0	0.000	
13	   C	5.068	-6.356	-6.857	C.2	1	UNK0	0.000	
14	   C	6.377	-7.408	-8.661	C.2	1	UNK0	0.000	
15	   C	7.234	-6.404	-9.112	C.2	1	UNK0	0.000	
16	   C	6.708	-8.748	-8.860	C.2	1	UNK0	0.000	
17	   C	6.145	-5.094	-4.942	C.2	1	UNK0	0.000	
18	   C	7.890	-4.046	-3.433	C.2	1	UNK0	0.000	
19	   C	9.069	-3.283	-3.451	C.2	1	UNK0	0.000	
20	   C	8.422	-6.740	-9.761	C.2	1	UNK0	0.000	
21	   C	9.450	-2.571	-2.288	C.2	1	UNK0	0.000	
22	   C	7.896	-9.085	-9.509	C.2	1	UNK0	0.000	
23	   C	8.753	-8.081	-9.959	C.2	1	UNK0	0.000	
24	   C	7.098	-4.107	-2.286	C.2	1	UNK0	0.000	
25	   C	9.879	-3.211	-4.596	C.2	1	UNK0	0.000	
26	   C	8.640	-2.643	-1.143	C.2	1	UNK0	0.000	
27	   C	7.472	-3.406	-1.143	C.2	1	UNK0	0.000	
28	   C	10.628	-1.808	-2.305	C.2	1	UNK0	0.000	
29	   C	11.047	-2.448	-4.595	C.2	1	UNK0	0.000	
30	   C	11.421	-1.748	-3.452	C.2	1	UNK0	0.000	
31	   H	0.993	-5.240	-7.142	 H	1	UNK0	0.000	
32	   H	1.280	-5.275	-8.887	 H	1	UNK0	0.000	
33	   H	-0.174	-6.033	-8.209	 H	1	UNK0	0.000	
34	   H	-0.048	-8.154	-6.880	 H	1	UNK0	0.000	
35	   H	1.501	-8.965	-6.575	 H	1	UNK0	0.000	
36	   H	1.125	-7.439	-5.765	 H	1	UNK0	0.000	
37	   H	0.224	-8.158	-9.275	 H	1	UNK0	0.000	
38	   H	1.672	-7.531	-10.082	 H	1	UNK0	0.000	
39	   H	1.761	-9.029	-9.143	 H	1	UNK0	0.000	
40	   H	3.233	-5.785	-5.774	 H	1	UNK0	0.000	
41	   H	7.083	-6.049	-6.517	 H	1	UNK0	0.000	
42	   H	6.978	-5.355	-8.971	 H	1	UNK0	0.000	
43	   H	6.054	-9.543	-8.511	 H	1	UNK0	0.000	
44	   H	8.160	-4.951	-5.268	 H	1	UNK0	0.000	
45	   H	8.154	-10.128	-9.662	 H	1	UNK0	0.000	
46	   H	9.676	-8.356	-10.463	 H	1	UNK0	0.000	
47	   H	6.204	-4.720	-2.225	 H	1	UNK0	0.000	
48	   H	9.637	-3.725	-5.521	 H	1	UNK0	0.000	
49	   H	8.914	-2.106	-0.237	 H	1	UNK0	0.000	
50	   H	6.860	-3.461	-0.247	 H	1	UNK0	0.000	
51	   H	10.940	-1.253	-1.423	 H	1	UNK0	0.000	
52	   H	11.663	-2.399	-5.488	 H	1	UNK0	0.000	
53	   H	12.330	-1.154	-3.452	 H	1	UNK0	0.000	
54	   H	10.151	-5.969	-10.687	 H	1	UNK0	0.000	
55	   H	9.051	-4.753	-10.072	 H	1	UNK0	0.000	
@<TRIPOS>BOND
1 1 17 2
2 2 3 1
3 2 13 1
4 2 14 1
5 3 8 2
6 4 13 1
7 4 17 1
8 4 41 1
9 5 17 1
10 5 18 1
11 5 44 1
12 6 20 1
13 6 54 1
14 6 55 1
15 7 8 1
16 7 9 1
17 7 10 1
18 7 11 1
19 8 12 1
20 9 31 1
21 9 32 1
22 9 33 1
23 10 34 1
24 10 35 1
25 10 36 1
26 11 37 1
27 11 38 1
28 11 39 1
29 12 13 2
30 12 40 1
31 14 15 1
32 14 16 2
33 15 20 2
34 15 42 1
35 16 22 1
36 16 43 1
37 18 19 1
38 18 24 2
39 19 21 1
40 19 25 2
41 20 23 1
42 21 26 1
43 21 28 2
44 22 23 2
45 22 45 1
46 23 46 1
47 24 27 1
48 24 47 1
49 25 29 1
50 25 48 1
51 26 27 2
52 26 49 1
53 27 50 1
54 28 30 1
55 28 51 1
56 29 30 2
57 29 52 1
58 30 53 1
@<TRIPOS>SUBSTRUCTURE
1	UNK0	1	GROUP	1 ****	UNK
