@<TRIPOS>MOLECULE
5328940
   65    68     0     0     0
SMALL
NO_CHARGES

@<TRIPOS>ATOM
      1 Cl1         6.1820  -23.4120   -0.7090 Cl        1 UNK         0.0000
      2 Cl2         6.0780  -28.8100   -0.5500 Cl        1 UNK         0.0000
      3 O1          9.0080  -22.7220   -7.2760 O.3       1 UNK         0.0000
      4 O2          6.9540  -22.9550   -5.4660 O.3       1 UNK         0.0000
      5 O3          9.0070  -28.5540   -0.8270 O.3       1 UNK         0.0000
      6 N1          7.6410  -26.1310   -6.7290 N.3       1 UNK         0.0000
      7 N2          5.9960  -27.5810   -4.9120 N.3       1 UNK         0.0000
      8 N3          9.1220  -23.7660   -0.9810 N.pl3     1 UNK         0.0000
      9 N4         12.1640  -23.3920   -3.7920 N.ar      1 UNK         0.0000
     10 N5         12.1290  -24.1710    0.8940 N.1       1 UNK         0.0000
     11 C1          8.2270  -26.8120   -5.5650 C.3       1 UNK         0.0000
     12 C2          6.4450  -26.8410   -7.2020 C.3       1 UNK         0.0000
     13 C3          7.1930  -26.8720   -4.4380 C.3       1 UNK         0.0000
     14 C4          5.4110  -26.9010   -6.0760 C.3       1 UNK         0.0000
     15 C5          8.6300  -25.9870   -7.8050 C.3       1 UNK         0.0000
     16 C6          8.3830  -24.6760   -8.5530 C.3       1 UNK         0.0000
     17 C7          5.0090  -27.7260   -3.8350 C.3       1 UNK         0.0000
     18 C8          9.4940  -23.6790   -8.2180 C.3       1 UNK         0.0000
     19 C9          9.2890  -22.9470   -5.9660 C.ar      1 UNK         0.0000
     20 C10         8.2410  -23.0660   -5.0420 C.ar      1 UNK         0.0000
     21 C11         9.8280  -23.4080   -3.2810 C.ar      1 UNK         0.0000
     22 C12        10.6000  -23.0570   -5.5600 C.ar      1 UNK         0.0000
     23 C13        10.8920  -23.2890   -4.2070 C.ar      1 UNK         0.0000
     24 C14         8.5010  -23.2930   -3.7210 C.ar      1 UNK         0.0000
     25 C15        10.1270  -23.6430   -1.9200 C.ar      1 UNK         0.0000
     26 C16        11.4770  -23.7460   -1.5530 C.ar      1 UNK         0.0000
     27 C17        12.4680  -23.6150   -2.5390 C.ar      1 UNK         0.0000
     28 C18         8.4030  -24.9620   -0.8790 C.ar      1 UNK         0.0000
     29 C19         9.0710  -26.1780   -0.9030 C.ar      1 UNK         0.0000
     30 C20         5.9390  -23.4620   -4.5970 C.3       1 UNK         0.0000
     31 C21         7.0190  -24.9330   -0.7470 C.ar      1 UNK         0.0000
     32 C22         8.3560  -27.3610   -0.8020 C.ar      1 UNK         0.0000
     33 C23        11.8410  -23.9830   -0.1880 C.1       1 UNK         0.0000
     34 C24         6.3090  -26.1150   -0.6520 C.ar      1 UNK         0.0000
     35 C25         6.9740  -27.3280   -0.6770 C.ar      1 UNK         0.0000
     36 C26         9.6630  -28.9100   -2.0470 C.3       1 UNK         0.0000
     37 H1          8.5200  -27.8240   -5.8450 H         1 UNK         0.0000
     38 H2          9.1040  -26.2610   -5.2250 H         1 UNK         0.0000
     39 H3          6.0230  -26.3100   -8.0560 H         1 UNK         0.0000
     40 H4          6.7170  -27.8530   -7.5010 H         1 UNK         0.0000
     41 H5          6.9210  -25.8590   -4.1400 H         1 UNK         0.0000
     42 H6          7.6150  -27.4020   -3.5840 H         1 UNK         0.0000
     43 H7          5.1190  -25.8890   -5.7960 H         1 UNK         0.0000
     44 H8          4.5340  -27.4510   -6.4170 H         1 UNK         0.0000
     45 H9          8.5360  -26.8230   -8.4980 H         1 UNK         0.0000
     46 H10         9.6330  -25.9780   -7.3800 H         1 UNK         0.0000
     47 H11         7.4210  -24.2610   -8.2520 H         1 UNK         0.0000
     48 H12         8.3760  -24.8650   -9.6270 H         1 UNK         0.0000
     49 H13         4.0890  -27.2130   -4.1130 H         1 UNK         0.0000
     50 H14         4.8000  -28.7840   -3.6740 H         1 UNK         0.0000
     51 H15         5.4060  -27.2900   -2.9180 H         1 UNK         0.0000
     52 H16         9.8080  -23.1670   -9.1280 H         1 UNK         0.0000
     53 H17        10.3430  -24.2130   -7.7890 H         1 UNK         0.0000
     54 H18        11.3990  -22.9630   -6.2790 H         1 UNK         0.0000
     55 H19         7.6870  -23.3830   -3.0170 H         1 UNK         0.0000
     56 H20         8.9140  -23.0240   -0.3920 H         1 UNK         0.0000
     57 H21        13.5070  -23.6950   -2.2560 H         1 UNK         0.0000
     58 H22        10.1460  -26.2030   -1.0010 H         1 UNK         0.0000
     59 H23         5.1220  -23.8710   -5.1910 H         1 UNK         0.0000
     60 H24         6.3590  -24.2470   -3.9680 H         1 UNK         0.0000
     61 H25         5.5620  -22.6550   -3.9690 H         1 UNK         0.0000
     62 H26         5.2330  -26.0910   -0.5530 H         1 UNK         0.0000
     63 H27         9.1970  -29.8030   -2.4620 H         1 UNK         0.0000
     64 H28         9.5780  -28.0890   -2.7580 H         1 UNK         0.0000
     65 H29        10.7170  -29.1100   -1.8470 H         1 UNK         0.0000
@<TRIPOS>BOND
     1    1   31 1
     2    2   35 1
     3    3   18 1
     4    3   19 1
     5    4   20 1
     6    4   30 1
     7    5   32 1
     8    5   36 1
     9    6   11 1
    10    6   12 1
    11    6   15 1
    12    7   13 1
    13    7   14 1
    14    7   17 1
    15    8   25 1
    16    8   28 1
    17    8   56 1
    18    9   23 ar
    19    9   27 ar
    20   10   33 3
    21   11   13 1
    22   11   37 1
    23   11   38 1
    24   12   14 1
    25   12   39 1
    26   12   40 1
    27   13   41 1
    28   13   42 1
    29   14   43 1
    30   14   44 1
    31   15   16 1
    32   15   45 1
    33   15   46 1
    34   16   18 1
    35   16   47 1
    36   16   48 1
    37   17   49 1
    38   17   50 1
    39   17   51 1
    40   18   52 1
    41   18   53 1
    42   19   20 ar
    43   19   22 ar
    44   20   24 ar
    45   21   23 ar
    46   21   24 ar
    47   21   25 ar
    48   22   23 ar
    49   22   54 1
    50   24   55 1
    51   25   26 ar
    52   26   27 ar
    53   26   33 1
    54   27   57 1
    55   28   29 ar
    56   28   31 ar
    57   29   32 ar
    58   29   58 1
    59   30   59 1
    60   30   60 1
    61   30   61 1
    62   31   34 ar
    63   32   35 ar
    64   34   35 ar
    65   34   62 1
    66   36   63 1
    67   36   64 1
    68   36   65 1
