@<TRIPOS>MOLECULE
5328940
   65    68     0     0     0
SMALL
NO_CHARGES

@<TRIPOS>ATOM
      1 Cl1         7.2850  -23.8360    3.6530 Cl        1 UNK         0.0000
      2 Cl2         5.4840  -28.9160    4.0010 Cl        1 UNK         0.0000
      3 O1          3.4130  -23.3550   -4.7780 O.3       1 UNK         0.0000
      4 O2          2.4640  -23.1450   -2.2090 O.3       1 UNK         0.0000
      5 O3          4.8240  -28.5360    1.1470 O.3       1 UNK         0.0000
      6 N1          2.4480  -27.0310   -4.0310 N.3       1 UNK         0.0000
      7 N2          2.1960  -26.5660   -1.2320 N.3       1 UNK         0.0000
      8 N3          6.4050  -24.0250    0.8190 N.pl3     1 UNK         0.0000
      9 N4          7.7520  -24.3150   -3.1050 N.ar      1 UNK         0.0000
     10 N5          9.8750  -24.7950    1.1180 N.1       1 UNK         0.0000
     11 C1          1.4030  -26.1380   -3.5090 C.3       1 UNK         0.0000
     12 C2          3.6350  -27.0090   -3.1630 C.3       1 UNK         0.0000
     13 C3          1.0100  -26.5860   -2.1000 C.3       1 UNK         0.0000
     14 C4          3.2410  -27.4580   -1.7550 C.3       1 UNK         0.0000
     15 C5          2.7990  -26.6780   -5.4130 C.3       1 UNK         0.0000
     16 C6          2.2870  -25.2710   -5.7270 C.3       1 UNK         0.0000
     17 C7          1.8450  -26.9180    0.1490 C.3       1 UNK         0.0000
     18 C8          3.4700  -24.3090   -5.8400 C.3       1 UNK         0.0000
     19 C9          4.2590  -23.5440   -3.7310 C.ar      1 UNK         0.0000
     20 C10         3.7750  -23.4370   -2.4200 C.ar      1 UNK         0.0000
     21 C11         5.9600  -23.9240   -1.5710 C.ar      1 UNK         0.0000
     22 C12         5.5820  -23.8380   -3.9710 C.ar      1 UNK         0.0000
     23 C13         6.4580  -24.0340   -2.8910 C.ar      1 UNK         0.0000
     24 C14         4.6070  -23.6230   -1.3550 C.ar      1 UNK         0.0000
     25 C15         6.8450  -24.1220   -0.4860 C.ar      1 UNK         0.0000
     26 C16         8.1840  -24.4190   -0.7780 C.ar      1 UNK         0.0000
     27 C17         8.5910  -24.5080   -2.1200 C.ar      1 UNK         0.0000
     28 C18         6.1860  -25.1840    1.5710 C.ar      1 UNK         0.0000
     29 C19         5.6080  -26.2970    0.9780 C.ar      1 UNK         0.0000
     30 C20         2.0570  -22.9320   -0.8540 C.3       1 UNK         0.0000
     31 C21         6.5540  -25.2250    2.9110 C.ar      1 UNK         0.0000
     32 C22         5.3910  -27.4450    1.7250 C.ar      1 UNK         0.0000
     33 C23         9.1280  -24.6290    0.2790 C.1       1 UNK         0.0000
     34 C24         6.3320  -26.3690    3.6550 C.ar      1 UNK         0.0000
     35 C25         5.7540  -27.4780    3.0640 C.ar      1 UNK         0.0000
     36 C26         5.6800  -29.3800    0.3740 C.3       1 UNK         0.0000
     37 H1          1.7810  -25.1160   -3.4740 H         1 UNK         0.0000
     38 H2          0.5310  -26.1810   -4.1610 H         1 UNK         0.0000
     39 H3          4.3880  -27.6870   -3.5640 H         1 UNK         0.0000
     40 H4          4.0380  -25.9980   -3.1240 H         1 UNK         0.0000
     41 H5          0.6060  -27.5980   -2.1400 H         1 UNK         0.0000
     42 H6          0.2560  -25.9090   -1.6990 H         1 UNK         0.0000
     43 H7          2.8630  -28.4790   -1.7900 H         1 UNK         0.0000
     44 H8          4.1140  -27.4160   -1.1030 H         1 UNK         0.0000
     45 H9          2.3410  -27.3920   -6.0970 H         1 UNK         0.0000
     46 H10         3.8820  -26.7040   -5.5310 H         1 UNK         0.0000
     47 H11         1.6240  -24.9390   -4.9270 H         1 UNK         0.0000
     48 H12         1.7390  -25.2850   -6.6690 H         1 UNK         0.0000
     49 H13         1.9420  -27.9940    0.2860 H         1 UNK         0.0000
     50 H14         2.5160  -26.4030    0.8370 H         1 UNK         0.0000
     51 H15         0.8170  -26.6170    0.3500 H         1 UNK         0.0000
     52 H16         3.4270  -23.7910   -6.7970 H         1 UNK         0.0000
     53 H17         4.4030  -24.8710   -5.7730 H         1 UNK         0.0000
     54 H18         5.9450  -23.9180   -4.9840 H         1 UNK         0.0000
     55 H19         4.2260  -23.5390   -0.3480 H         1 UNK         0.0000
     56 H20         6.2490  -23.1540    1.2150 H         1 UNK         0.0000
     57 H21         9.6220  -24.7370   -2.3440 H         1 UNK         0.0000
     58 H22         5.3250  -26.2700   -0.0640 H         1 UNK         0.0000
     59 H23         1.5990  -23.8400   -0.4650 H         1 UNK         0.0000
     60 H24         2.9280  -22.6760   -0.2510 H         1 UNK         0.0000
     61 H25         1.3360  -22.1160   -0.8170 H         1 UNK         0.0000
     62 H26         6.6150  -26.3970    4.6970 H         1 UNK         0.0000
     63 H27         5.0750  -30.0340   -0.2540 H         1 UNK         0.0000
     64 H28         6.3250  -28.7660   -0.2540 H         1 UNK         0.0000
     65 H29         6.2940  -29.9850    1.0430 H         1 UNK         0.0000
@<TRIPOS>BOND
     1    1   31 1
     2    2   35 1
     3    3   18 1
     4    3   19 1
     5    4   20 1
     6    4   30 1
     7    5   32 1
     8    5   36 1
     9    6   11 1
    10    6   12 1
    11    6   15 1
    12    7   13 1
    13    7   14 1
    14    7   17 1
    15    8   25 1
    16    8   28 1
    17    8   56 1
    18    9   23 ar
    19    9   27 ar
    20   10   33 3
    21   11   13 1
    22   11   37 1
    23   11   38 1
    24   12   14 1
    25   12   39 1
    26   12   40 1
    27   13   41 1
    28   13   42 1
    29   14   43 1
    30   14   44 1
    31   15   16 1
    32   15   45 1
    33   15   46 1
    34   16   18 1
    35   16   47 1
    36   16   48 1
    37   17   49 1
    38   17   50 1
    39   17   51 1
    40   18   52 1
    41   18   53 1
    42   19   20 ar
    43   19   22 ar
    44   20   24 ar
    45   21   23 ar
    46   21   24 ar
    47   21   25 ar
    48   22   23 ar
    49   22   54 1
    50   24   55 1
    51   25   26 ar
    52   26   27 ar
    53   26   33 1
    54   27   57 1
    55   28   29 ar
    56   28   31 ar
    57   29   32 ar
    58   29   58 1
    59   30   59 1
    60   30   60 1
    61   30   61 1
    62   31   34 ar
    63   32   35 ar
    64   34   35 ar
    65   34   62 1
    66   36   63 1
    67   36   64 1
    68   36   65 1
