@<TRIPOS>MOLECULE
5328940
   65    68     0     0     0
SMALL
NO_CHARGES

@<TRIPOS>ATOM
      1 Cl1         9.5450  -24.9680    1.7750 Cl        1 UNK         0.0000
      2 Cl2         5.5860  -23.1660    4.9770 Cl        1 UNK         0.0000
      3 O1          5.8220  -24.4740   -4.3520 O.3       1 UNK         0.0000
      4 O2          7.4310  -23.5160   -2.3420 O.3       1 UNK         0.0000
      5 O3          4.1460  -25.5510    3.9980 O.3       1 UNK         0.0000
      6 N1          2.4220  -24.2990   -1.8220 N.3       1 UNK         0.0000
      7 N2          2.9560  -26.5340   -0.1410 N.3       1 UNK         0.0000
      8 N3          7.6410  -27.1620    1.1430 N.pl3     1 UNK         0.0000
      9 N4          5.2230  -28.5270   -1.9540 N.ar      1 UNK         0.0000
     10 N5          6.6360  -30.4280    2.1650 N.1       1 UNK         0.0000
     11 C1          3.5100  -24.2520   -0.8350 C.3       1 UNK         0.0000
     12 C2          2.2150  -25.6700   -2.3090 C.3       1 UNK         0.0000
     13 C3          3.1640  -25.1630    0.3450 C.3       1 UNK         0.0000
     14 C4          1.8690  -26.5800   -1.1290 C.3       1 UNK         0.0000
     15 C5          2.6830  -23.3780   -2.9360 C.3       1 UNK         0.0000
     16 C6          3.4540  -24.1110   -4.0350 C.3       1 UNK         0.0000
     17 C7          2.6970  -27.4550    0.9720 C.3       1 UNK         0.0000
     18 C8          4.8250  -23.4590   -4.2190 C.3       1 UNK         0.0000
     19 C9          6.0670  -25.2460   -3.2610 C.ar      1 UNK         0.0000
     20 C10         6.8880  -24.7590   -2.2360 C.ar      1 UNK         0.0000
     21 C11         6.5870  -26.8000   -1.0200 C.ar      1 UNK         0.0000
     22 C12         5.5050  -26.5000   -3.1760 C.ar      1 UNK         0.0000
     23 C13         5.7570  -27.3000   -2.0510 C.ar      1 UNK         0.0000
     24 C14         7.1470  -25.5180   -1.1310 C.ar      1 UNK         0.0000
     25 C15         6.8380  -27.6080    0.1130 C.ar      1 UNK         0.0000
     26 C16         6.2450  -28.8790    0.1550 C.ar      1 UNK         0.0000
     27 C17         5.4340  -29.2940   -0.9150 C.ar      1 UNK         0.0000
     28 C18         7.1520  -26.2170    2.0510 C.ar      1 UNK         0.0000
     29 C19         5.8770  -26.3560    2.5800 C.ar      1 UNK         0.0000
     30 C20         8.5110  -23.2030   -1.4570 C.3       1 UNK         0.0000
     31 C21         7.9460  -25.1400    2.4300 C.ar      1 UNK         0.0000
     32 C22         5.3950  -25.4180    3.4790 C.ar      1 UNK         0.0000
     33 C23         6.4620  -29.7430    1.2760 C.1       1 UNK         0.0000
     34 C24         7.4610  -24.2040    3.3230 C.ar      1 UNK         0.0000
     35 C25         6.1890  -24.3420    3.8500 C.ar      1 UNK         0.0000
     36 C26         3.9490  -26.5920    4.9580 C.3       1 UNK         0.0000
     37 H1          4.4360  -24.5930   -1.2990 H         1 UNK         0.0000
     38 H2          3.6360  -23.2290   -0.4800 H         1 UNK         0.0000
     39 H3          1.3960  -25.6790   -3.0280 H         1 UNK         0.0000
     40 H4          3.1250  -26.0260   -2.7880 H         1 UNK         0.0000
     41 H5          2.2530  -24.8060    0.8250 H         1 UNK         0.0000
     42 H6          3.9830  -25.1530    1.0650 H         1 UNK         0.0000
     43 H7          0.9430  -26.2400   -0.6650 H         1 UNK         0.0000
     44 H8          1.7420  -27.6030   -1.4840 H         1 UNK         0.0000
     45 H9          3.2730  -22.5340   -2.5780 H         1 UNK         0.0000
     46 H10         1.7370  -23.0140   -3.3370 H         1 UNK         0.0000
     47 H11         2.8960  -24.0530   -4.9700 H         1 UNK         0.0000
     48 H12         3.5830  -25.1560   -3.7530 H         1 UNK         0.0000
     49 H13         1.7460  -27.9620    0.8110 H         1 UNK         0.0000
     50 H14         3.4970  -28.1930    1.0280 H         1 UNK         0.0000
     51 H15         2.6550  -26.8920    1.9050 H         1 UNK         0.0000
     52 H16         5.0510  -22.8380   -3.3520 H         1 UNK         0.0000
     53 H17         4.8160  -22.8390   -5.1160 H         1 UNK         0.0000
     54 H18         4.8740  -26.8660   -3.9720 H         1 UNK         0.0000
     55 H19         7.7810  -25.1340   -0.3460 H         1 UNK         0.0000
     56 H20         8.5430  -27.5040    1.2380 H         1 UNK         0.0000
     57 H21         4.9780  -30.2720   -0.8810 H         1 UNK         0.0000
     58 H22         5.2590  -27.1940    2.2910 H         1 UNK         0.0000
     59 H23         8.6990  -24.0510   -0.7990 H         1 UNK         0.0000
     60 H24         9.4060  -22.9890   -2.0400 H         1 UNK         0.0000
     61 H25         8.2480  -22.3300   -0.8600 H         1 UNK         0.0000
     62 H26         8.0780  -23.3650    3.6130 H         1 UNK         0.0000
     63 H27         2.9840  -27.0670    4.7850 H         1 UNK         0.0000
     64 H28         4.7430  -27.3320    4.8590 H         1 UNK         0.0000
     65 H29         3.9710  -26.1680    5.9620 H         1 UNK         0.0000
@<TRIPOS>BOND
     1    1   31 1
     2    2   35 1
     3    3   18 1
     4    3   19 1
     5    4   20 1
     6    4   30 1
     7    5   32 1
     8    5   36 1
     9    6   11 1
    10    6   12 1
    11    6   15 1
    12    7   13 1
    13    7   14 1
    14    7   17 1
    15    8   25 1
    16    8   28 1
    17    8   56 1
    18    9   23 ar
    19    9   27 ar
    20   10   33 3
    21   11   13 1
    22   11   37 1
    23   11   38 1
    24   12   14 1
    25   12   39 1
    26   12   40 1
    27   13   41 1
    28   13   42 1
    29   14   43 1
    30   14   44 1
    31   15   16 1
    32   15   45 1
    33   15   46 1
    34   16   18 1
    35   16   47 1
    36   16   48 1
    37   17   49 1
    38   17   50 1
    39   17   51 1
    40   18   52 1
    41   18   53 1
    42   19   20 ar
    43   19   22 ar
    44   20   24 ar
    45   21   23 ar
    46   21   24 ar
    47   21   25 ar
    48   22   23 ar
    49   22   54 1
    50   24   55 1
    51   25   26 ar
    52   26   27 ar
    53   26   33 1
    54   27   57 1
    55   28   29 ar
    56   28   31 ar
    57   29   32 ar
    58   29   58 1
    59   30   59 1
    60   30   60 1
    61   30   61 1
    62   31   34 ar
    63   32   35 ar
    64   34   35 ar
    65   34   62 1
    66   36   63 1
    67   36   64 1
    68   36   65 1
