@<TRIPOS>MOLECULE
5328940
   65    68     0     0     0
SMALL
NO_CHARGES

@<TRIPOS>ATOM
      1 Cl1         6.4210  -23.5040    5.3250 Cl        1 UNK         0.0000
      2 Cl2        11.2970  -25.7730    5.8240 Cl        1 UNK         0.0000
      3 O1          7.2620  -24.5200   -3.8970 O.3       1 UNK         0.0000
      4 O2          8.2930  -22.7210   -2.0940 O.3       1 UNK         0.0000
      5 O3         11.0310  -26.2230    2.9180 O.3       1 UNK         0.0000
      6 N1          3.6980  -24.1070   -3.4590 N.3       1 UNK         0.0000
      7 N2          2.0330  -24.5910   -1.2000 N.3       1 UNK         0.0000
      8 N3          6.7000  -24.2250    2.4530 N.pl3     1 UNK         0.0000
      9 N4          5.1900  -26.9000   -0.3500 N.ar      1 UNK         0.0000
     10 N5          4.8360  -26.5800    4.3770 N.1       1 UNK         0.0000
     11 C1          2.5690  -25.0460   -3.5450 C.3       1 UNK         0.0000
     12 C2          3.4150  -23.0370   -2.4920 C.3       1 UNK         0.0000
     13 C3          2.3140  -25.6610   -2.1680 C.3       1 UNK         0.0000
     14 C4          3.1600  -23.6530   -1.1150 C.3       1 UNK         0.0000
     15 C5          4.0220  -23.5520   -4.7790 C.3       1 UNK         0.0000
     16 C6          5.3190  -24.1810   -5.2930 C.3       1 UNK         0.0000
     17 C7          1.7070  -25.1460    0.1190 C.3       1 UNK         0.0000
     18 C8          6.5140  -23.5260   -4.6000 C.3       1 UNK         0.0000
     19 C9          6.9990  -24.6690   -2.5730 C.ar      1 UNK         0.0000
     20 C10         7.5240  -23.7520   -1.6530 C.ar      1 UNK         0.0000
     21 C11         6.4790  -24.9470    0.1400 C.ar      1 UNK         0.0000
     22 C12         6.2180  -25.7210   -2.1490 C.ar      1 UNK         0.0000
     23 C13         5.9440  -25.8780   -0.7820 C.ar      1 UNK         0.0000
     24 C14         7.2720  -23.8840   -0.3180 C.ar      1 UNK         0.0000
     25 C15         6.2010  -25.1080    1.5170 C.ar      1 UNK         0.0000
     26 C16         5.4010  -26.1950    1.9010 C.ar      1 UNK         0.0000
     27 C17         4.9120  -27.0700    0.9170 C.ar      1 UNK         0.0000
     28 C18         7.7900  -24.5920    3.2490 C.ar      1 UNK         0.0000
     29 C19         8.8820  -25.2320    2.6800 C.ar      1 UNK         0.0000
     30 C20         9.7080  -22.8500   -1.9300 C.3       1 UNK         0.0000
     31 C21         7.7830  -24.3110    4.6110 C.ar      1 UNK         0.0000
     32 C22         9.9600  -25.5950    3.4720 C.ar      1 UNK         0.0000
     33 C23         5.0850  -26.4100    3.2820 C.1       1 UNK         0.0000
     34 C24         8.8580  -24.6790    5.3990 C.ar      1 UNK         0.0000
     35 C25         9.9460  -25.3180    4.8320 C.ar      1 UNK         0.0000
     36 C26        11.8390  -25.4570    2.0210 C.3       1 UNK         0.0000
     37 H1          1.6780  -24.5130   -3.8770 H         1 UNK         0.0000
     38 H2          2.8080  -25.8350   -4.2580 H         1 UNK         0.0000
     39 H3          4.2710  -22.3640   -2.4370 H         1 UNK         0.0000
     40 H4          2.5340  -22.4820   -2.8110 H         1 UNK         0.0000
     41 H5          3.1960  -26.2160   -1.8490 H         1 UNK         0.0000
     42 H6          1.4600  -26.3350   -2.2230 H         1 UNK         0.0000
     43 H7          4.0510  -24.1850   -0.7830 H         1 UNK         0.0000
     44 H8          2.9230  -22.8630   -0.4020 H         1 UNK         0.0000
     45 H9          4.1500  -22.4730   -4.6980 H         1 UNK         0.0000
     46 H10         3.2130  -23.7710   -5.4750 H         1 UNK         0.0000
     47 H11         5.3950  -24.0290   -6.3700 H         1 UNK         0.0000
     48 H12         5.3150  -25.2500   -5.0780 H         1 UNK         0.0000
     49 H13         2.3860  -24.7330    0.8650 H         1 UNK         0.0000
     50 H14         0.6810  -24.8860    0.3800 H         1 UNK         0.0000
     51 H15         1.8120  -26.2310    0.0920 H         1 UNK         0.0000
     52 H16         6.1590  -22.7730   -3.8970 H         1 UNK         0.0000
     53 H17         7.1530  -23.0520   -5.3470 H         1 UNK         0.0000
     54 H18         5.8180  -26.4220   -2.8660 H         1 UNK         0.0000
     55 H19         7.6810  -23.1720    0.3840 H         1 UNK         0.0000
     56 H20         6.2960  -23.3490    2.5590 H         1 UNK         0.0000
     57 H21         4.2970  -27.9050    1.2140 H         1 UNK         0.0000
     58 H22         8.8920  -25.4470    1.6220 H         1 UNK         0.0000
     59 H23         9.9180  -23.5600   -1.1310 H         1 UNK         0.0000
     60 H24        10.1490  -23.2090   -2.8600 H         1 UNK         0.0000
     61 H25        10.1330  -21.8790   -1.6760 H         1 UNK         0.0000
     62 H26         8.8490  -24.4640    6.4580 H         1 UNK         0.0000
     63 H27        11.7330  -25.8500    1.0110 H         1 UNK         0.0000
     64 H28        11.5190  -24.4150    2.0430 H         1 UNK         0.0000
     65 H29        12.8840  -25.5230    2.3290 H         1 UNK         0.0000
@<TRIPOS>BOND
     1    1   31 1
     2    2   35 1
     3    3   18 1
     4    3   19 1
     5    4   20 1
     6    4   30 1
     7    5   32 1
     8    5   36 1
     9    6   11 1
    10    6   12 1
    11    6   15 1
    12    7   13 1
    13    7   14 1
    14    7   17 1
    15    8   25 1
    16    8   28 1
    17    8   56 1
    18    9   23 ar
    19    9   27 ar
    20   10   33 3
    21   11   13 1
    22   11   37 1
    23   11   38 1
    24   12   14 1
    25   12   39 1
    26   12   40 1
    27   13   41 1
    28   13   42 1
    29   14   43 1
    30   14   44 1
    31   15   16 1
    32   15   45 1
    33   15   46 1
    34   16   18 1
    35   16   47 1
    36   16   48 1
    37   17   49 1
    38   17   50 1
    39   17   51 1
    40   18   52 1
    41   18   53 1
    42   19   20 ar
    43   19   22 ar
    44   20   24 ar
    45   21   23 ar
    46   21   24 ar
    47   21   25 ar
    48   22   23 ar
    49   22   54 1
    50   24   55 1
    51   25   26 ar
    52   26   27 ar
    53   26   33 1
    54   27   57 1
    55   28   29 ar
    56   28   31 ar
    57   29   32 ar
    58   29   58 1
    59   30   59 1
    60   30   60 1
    61   30   61 1
    62   31   34 ar
    63   32   35 ar
    64   34   35 ar
    65   34   62 1
    66   36   63 1
    67   36   64 1
    68   36   65 1
