@<TRIPOS>MOLECULE
5328940
   65    68     0     0     0
SMALL
NO_CHARGES

@<TRIPOS>ATOM
      1 Cl1         1.8810  -22.7270   -1.1980 Cl        1 UNK         0.0000
      2 Cl2         0.5580  -27.7090    0.4170 Cl        1 UNK         0.0000
      3 O1         10.5780  -24.7590    1.4470 O.3       1 UNK         0.0000
      4 O2          8.2930  -24.0660    2.8060 O.3       1 UNK         0.0000
      5 O3          3.4750  -28.0250    0.7580 O.3       1 UNK         0.0000
      6 N1          8.9990  -27.1480    3.4400 N.3       1 UNK         0.0000
      7 N2          6.4270  -28.1130    4.1900 N.3       1 UNK         0.0000
      8 N3          4.6710  -23.6140   -0.6810 N.pl3     1 UNK         0.0000
      9 N4          8.1790  -24.6720   -2.6490 N.ar      1 UNK         0.0000
     10 N5          3.7490  -23.7950   -4.1210 N.1       1 UNK         0.0000
     11 C1          8.7770  -27.7400    4.7670 C.3       1 UNK         0.0000
     12 C2          8.1030  -27.7500    2.4420 C.3       1 UNK         0.0000
     13 C3          7.3240  -27.5120    5.1880 C.3       1 UNK         0.0000
     14 C4          6.6500  -27.5220    2.8630 C.3       1 UNK         0.0000
     15 C5         10.4040  -27.2800    3.0330 C.3       1 UNK         0.0000
     16 C6         10.5080  -27.1740    1.5110 C.3       1 UNK         0.0000
     17 C7          5.0230  -27.9820    4.5970 C.3       1 UNK         0.0000
     18 C8         11.3270  -25.9360    1.1400 C.3       1 UNK         0.0000
     19 C9          9.4210  -24.5660    0.7620 C.ar      1 UNK         0.0000
     20 C10         8.2550  -24.2120    1.4540 C.ar      1 UNK         0.0000
     21 C11         7.0410  -24.1640   -0.6090 C.ar      1 UNK         0.0000
     22 C12         9.4070  -24.7200   -0.6060 C.ar      1 UNK         0.0000
     23 C13         8.2130  -24.5210   -1.3160 C.ar      1 UNK         0.0000
     24 C14         7.0820  -24.0130    0.7860 C.ar      1 UNK         0.0000
     25 C15         5.8400  -23.9640   -1.3280 C.ar      1 UNK         0.0000
     26 C16         5.8740  -24.1330   -2.7200 C.ar      1 UNK         0.0000
     27 C17         7.0840  -24.4880   -3.3400 C.ar      1 UNK         0.0000
     28 C18         3.6990  -24.5850   -0.4200 C.ar      1 UNK         0.0000
     29 C19         4.0750  -25.8370    0.0460 C.ar      1 UNK         0.0000
     30 C20         7.0390  -23.9210    3.4780 C.3       1 UNK         0.0000
     31 C21         2.3540  -24.2960   -0.6220 C.ar      1 UNK         0.0000
     32 C22         3.1090  -26.7980    0.3030 C.ar      1 UNK         0.0000
     33 C23         4.6890  -23.9440   -3.5020 C.1       1 UNK         0.0000
     34 C24         1.3940  -25.2570   -0.3690 C.ar      1 UNK         0.0000
     35 C25         1.7690  -26.5060    0.0940 C.ar      1 UNK         0.0000
     36 C26         4.5380  -28.6840    0.0660 C.3       1 UNK         0.0000
     37 H1          8.9810  -28.8100    4.7260 H         1 UNK         0.0000
     38 H2          9.4440  -27.2700    5.4900 H         1 UNK         0.0000
     39 H3          8.2780  -27.2850    1.4710 H         1 UNK         0.0000
     40 H4          8.2990  -28.8190    2.3750 H         1 UNK         0.0000
     41 H5          7.1280  -26.4420    5.2550 H         1 UNK         0.0000
     42 H6          7.1490  -27.9760    6.1590 H         1 UNK         0.0000
     43 H7          6.4460  -26.4520    2.9040 H         1 UNK         0.0000
     44 H8          5.9840  -27.9910    2.1390 H         1 UNK         0.0000
     45 H9         10.7860  -28.2480    3.3570 H         1 UNK         0.0000
     46 H10        10.9920  -26.4860    3.4930 H         1 UNK         0.0000
     47 H11         9.5090  -27.0900    1.0840 H         1 UNK         0.0000
     48 H12        10.9980  -28.0650    1.1170 H         1 UNK         0.0000
     49 H13         4.3910  -28.5480    3.9130 H         1 UNK         0.0000
     50 H14         4.9000  -28.3680    5.6080 H         1 UNK         0.0000
     51 H15         4.7340  -26.9310    4.5710 H         1 UNK         0.0000
     52 H16        11.5520  -25.9560    0.0740 H         1 UNK         0.0000
     53 H17        12.2580  -25.9330    1.7070 H         1 UNK         0.0000
     54 H18        10.3110  -24.9930   -1.1300 H         1 UNK         0.0000
     55 H19         6.1880  -23.7410    1.3270 H         1 UNK         0.0000
     56 H20         4.5250  -22.6960   -0.4070 H         1 UNK         0.0000
     57 H21         7.1080  -24.6180   -4.4110 H         1 UNK         0.0000
     58 H22         5.1190  -26.0630    0.2070 H         1 UNK         0.0000
     59 H23         6.8920  -24.7600    4.1580 H         1 UNK         0.0000
     60 H24         7.0370  -22.9890    4.0440 H         1 UNK         0.0000
     61 H25         6.2350  -23.9020    2.7430 H         1 UNK         0.0000
     62 H26         0.3500  -25.0320   -0.5300 H         1 UNK         0.0000
     63 H27         5.1830  -29.1870    0.7860 H         1 UNK         0.0000
     64 H28         4.1220  -29.4170   -0.6250 H         1 UNK         0.0000
     65 H29         5.1190  -27.9480   -0.4900 H         1 UNK         0.0000
@<TRIPOS>BOND
     1    1   31 1
     2    2   35 1
     3    3   18 1
     4    3   19 1
     5    4   20 1
     6    4   30 1
     7    5   32 1
     8    5   36 1
     9    6   11 1
    10    6   12 1
    11    6   15 1
    12    7   13 1
    13    7   14 1
    14    7   17 1
    15    8   25 1
    16    8   28 1
    17    8   56 1
    18    9   23 ar
    19    9   27 ar
    20   10   33 3
    21   11   13 1
    22   11   37 1
    23   11   38 1
    24   12   14 1
    25   12   39 1
    26   12   40 1
    27   13   41 1
    28   13   42 1
    29   14   43 1
    30   14   44 1
    31   15   16 1
    32   15   45 1
    33   15   46 1
    34   16   18 1
    35   16   47 1
    36   16   48 1
    37   17   49 1
    38   17   50 1
    39   17   51 1
    40   18   52 1
    41   18   53 1
    42   19   20 ar
    43   19   22 ar
    44   20   24 ar
    45   21   23 ar
    46   21   24 ar
    47   21   25 ar
    48   22   23 ar
    49   22   54 1
    50   24   55 1
    51   25   26 ar
    52   26   27 ar
    53   26   33 1
    54   27   57 1
    55   28   29 ar
    56   28   31 ar
    57   29   32 ar
    58   29   58 1
    59   30   59 1
    60   30   60 1
    61   30   61 1
    62   31   34 ar
    63   32   35 ar
    64   34   35 ar
    65   34   62 1
    66   36   63 1
    67   36   64 1
    68   36   65 1
