@<TRIPOS>MOLECULE
24821094
   57    61     0     0     0
SMALL
NO_CHARGES

@<TRIPOS>ATOM
      1 O1          9.1820   -5.1590  -13.6460 O.2       1 UNK         0.0000
      2 O2          6.2920   -3.4910   -1.9990 O.3       1 UNK         0.0000
      3 N1          8.4070   -6.0680  -11.7740 N.am      1 UNK         0.0000
      4 N2          5.9020   -6.6460   -9.0750 N.pl3     1 UNK         0.0000
      5 N3          6.3740   -5.8450   -8.0290 N.2       1 UNK         0.0000
      6 N4          4.0180   -8.2620   -9.2100 N.ar      1 UNK         0.0000
      7 N5          2.7930   -8.4990   -7.2620 N.ar      1 UNK         0.0000
      8 N6          3.2860   -7.3020   -5.2920 N.pl3     1 UNK         0.0000
      9 C1          6.4780   -6.7070  -10.4200 C.3       1 UNK         0.0000
     10 C2          6.7860   -8.1630  -10.7790 C.3       1 UNK         0.0000
     11 C3          7.7750   -5.8910  -10.4590 C.3       1 UNK         0.0000
     12 C4          7.3570   -8.2310  -12.1970 C.3       1 UNK         0.0000
     13 C5          8.6580   -7.4320  -12.2580 C.3       1 UNK         0.0000
     14 C6          4.8270   -7.3650   -8.6450 C.ar      1 UNK         0.0000
     15 C7          4.6070   -7.0100   -7.3010 C.ar      1 UNK         0.0000
     16 C8          8.7430   -5.0000  -12.5230 C.2       1 UNK         0.0000
     17 C9          5.6320   -6.0240   -6.9610 C.2       1 UNK         0.0000
     18 C10         3.5440   -7.6160   -6.6130 C.ar      1 UNK         0.0000
     19 C11         5.8060   -5.3540   -5.6500 C.ar      1 UNK         0.0000
     20 C12         8.5780   -3.6410  -11.9830 C.2       1 UNK         0.0000
     21 C13         3.0350   -8.8030   -8.5250 C.ar      1 UNK         0.0000
     22 C14         6.7570   -5.8270   -4.7450 C.ar      1 UNK         0.0000
     23 C15         5.0240   -4.2480   -5.3210 C.ar      1 UNK         0.0000
     24 C16         9.6200   -2.8170  -11.9290 C.2       1 UNK         0.0000
     25 C17         6.9160   -5.2020   -3.5270 C.ar      1 UNK         0.0000
     26 C18         5.1850   -3.6310   -4.0990 C.ar      1 UNK         0.0000
     27 C19         6.1330   -4.1040   -3.2000 C.ar      1 UNK         0.0000
     28 C20         6.4730   -2.1440   -1.9880 C.ar      1 UNK         0.0000
     29 C21         5.3990   -1.3000   -1.7360 C.ar      1 UNK         0.0000
     30 C22         7.7310   -1.6090   -2.2240 C.ar      1 UNK         0.0000
     31 C23         5.5860    0.0680   -1.7260 C.ar      1 UNK         0.0000
     32 C24         7.9110   -0.2400   -2.2180 C.ar      1 UNK         0.0000
     33 C25         6.8410    0.5980   -1.9670 C.ar      1 UNK         0.0000
     34 H1          5.7690   -6.2960  -11.1390 H         1 UNK         0.0000
     35 H2          7.5140   -8.5650  -10.0740 H         1 UNK         0.0000
     36 H3          5.8690   -8.7500  -10.7280 H         1 UNK         0.0000
     37 H4          8.4510   -6.2420   -9.6790 H         1 UNK         0.0000
     38 H5          7.5480   -4.8370  -10.3020 H         1 UNK         0.0000
     39 H6          7.5540   -9.2700  -12.4610 H         1 UNK         0.0000
     40 H7          6.6390   -7.8070  -12.8990 H         1 UNK         0.0000
     41 H8          9.0140   -7.3940  -13.2880 H         1 UNK         0.0000
     42 H9          9.4070   -7.9110  -11.6280 H         1 UNK         0.0000
     43 H10         7.6120   -3.3150  -11.6280 H         1 UNK         0.0000
     44 H11         2.3990   -9.5270   -9.0140 H         1 UNK         0.0000
     45 H12         7.3680   -6.6800   -5.0000 H         1 UNK         0.0000
     46 H13         4.2900   -3.8770   -6.0220 H         1 UNK         0.0000
     47 H14         3.0910   -6.3850   -5.0410 H         1 UNK         0.0000
     48 H15         3.2990   -7.9980   -4.6160 H         1 UNK         0.0000
     49 H16         9.5000   -1.8210  -11.5290 H         1 UNK         0.0000
     50 H17        10.5860   -3.1430  -12.2850 H         1 UNK         0.0000
     51 H18         7.6520   -5.5670   -2.8250 H         1 UNK         0.0000
     52 H19         4.5760   -2.7760   -3.8410 H         1 UNK         0.0000
     53 H20         4.4200   -1.7140   -1.5490 H         1 UNK         0.0000
     54 H21         8.5690   -2.2640   -2.4150 H         1 UNK         0.0000
     55 H22         4.7520    0.7260   -1.5300 H         1 UNK         0.0000
     56 H23         8.8900    0.1760   -2.4060 H         1 UNK         0.0000
     57 H24         6.9840    1.6690   -1.9590 H         1 UNK         0.0000
@<TRIPOS>BOND
     1    1   16 2
     2    2   27 1
     3    2   28 1
     4    3   11 1
     5    3   13 1
     6    3   16 am
     7    4    5 1
     8    4    9 1
     9    4   14 1
    10    5   17 2
    11    6   14 ar
    12    6   21 ar
    13    7   18 ar
    14    7   21 ar
    15    8   18 1
    16    8   47 1
    17    8   48 1
    18    9   10 1
    19    9   11 1
    20    9   34 1
    21   10   12 1
    22   10   35 1
    23   10   36 1
    24   11   37 1
    25   11   38 1
    26   12   13 1
    27   12   39 1
    28   12   40 1
    29   13   41 1
    30   13   42 1
    31   14   15 ar
    32   15   17 1
    33   15   18 ar
    34   16   20 1
    35   17   19 1
    36   19   22 ar
    37   19   23 ar
    38   20   24 2
    39   20   43 1
    40   21   44 1
    41   22   25 ar
    42   22   45 1
    43   23   26 ar
    44   23   46 1
    45   24   49 1
    46   24   50 1
    47   25   27 ar
    48   25   51 1
    49   26   27 ar
    50   26   52 1
    51   28   29 ar
    52   28   30 ar
    53   29   31 ar
    54   29   53 1
    55   30   32 ar
    56   30   54 1
    57   31   33 ar
    58   31   55 1
    59   32   33 ar
    60   32   56 1
    61   33   57 1
