@<TRIPOS>MOLECULE
24821094
   57    61     0     0     0
SMALL
NO_CHARGES

@<TRIPOS>ATOM
      1 O1          6.3910   -8.6030  -17.5310 O.2       1 UNK         0.0000
      2 O2          4.4140   -5.1050   -4.8980 O.3       1 UNK         0.0000
      3 N1          6.0400   -8.0550  -15.4080 N.am      1 UNK         0.0000
      4 N2          6.5010   -6.0300  -12.3130 N.pl3     1 UNK         0.0000
      5 N3          5.6660   -5.9680  -11.1920 N.2       1 UNK         0.0000
      6 N4          8.9460   -5.6830  -12.5830 N.ar      1 UNK         0.0000
      7 N5         10.0820   -5.1680  -10.6350 N.ar      1 UNK         0.0000
      8 N6          9.0080   -4.9850   -8.5440 N.pl3     1 UNK         0.0000
      9 C1          6.0630   -6.3330  -13.6770 C.3       1 UNK         0.0000
     10 C2          4.5340   -6.3420  -13.7340 C.3       1 UNK         0.0000
     11 C3          6.5930   -7.7100  -14.0910 C.3       1 UNK         0.0000
     12 C4          4.0760   -6.6260  -15.1660 C.3       1 UNK         0.0000
     13 C5          4.5840   -8.0010  -15.5980 C.3       1 UNK         0.0000
     14 C6          7.7820   -5.7600  -11.9380 C.ar      1 UNK         0.0000
     15 C7          7.7640   -5.5270  -10.5500 C.ar      1 UNK         0.0000
     16 C8          6.8530   -8.4070  -16.4230 C.2       1 UNK         0.0000
     17 C9          6.3730   -5.6790  -10.1250 C.2       1 UNK         0.0000
     18 C10         8.9720   -5.2220   -9.9050 C.ar      1 UNK         0.0000
     19 C11         5.8550   -5.5280   -8.7430 C.ar      1 UNK         0.0000
     20 C12         8.2980   -8.5550  -16.1910 C.2       1 UNK         0.0000
     21 C13        10.0540   -5.3940  -11.9360 C.ar      1 UNK         0.0000
     22 C14         5.6260   -4.2560   -8.2190 C.ar      1 UNK         0.0000
     23 C15         5.5920   -6.6560   -7.9690 C.ar      1 UNK         0.0000
     24 C16         8.8890   -9.7280  -16.4040 C.2       1 UNK         0.0000
     25 C17         5.1450   -4.1180   -6.9340 C.ar      1 UNK         0.0000
     26 C18         5.1150   -6.5120   -6.6830 C.ar      1 UNK         0.0000
     27 C19         4.8880   -5.2430   -6.1630 C.ar      1 UNK         0.0000
     28 C20         5.1940   -4.4600   -3.9920 C.ar      1 UNK         0.0000
     29 C21         6.3880   -5.0290   -3.5720 C.ar      1 UNK         0.0000
     30 C22         4.8000   -3.2280   -3.4880 C.ar      1 UNK         0.0000
     31 C23         7.1780   -4.3700   -2.6510 C.ar      1 UNK         0.0000
     32 C24         5.5920   -2.5760   -2.5630 C.ar      1 UNK         0.0000
     33 C25         6.7810   -3.1450   -2.1470 C.ar      1 UNK         0.0000
     34 H1          6.4490   -5.5760  -14.3600 H         1 UNK         0.0000
     35 H2          4.1500   -7.1170  -13.0690 H         1 UNK         0.0000
     36 H3          4.1530   -5.3710  -13.4160 H         1 UNK         0.0000
     37 H4          6.2840   -8.4560  -13.3590 H         1 UNK         0.0000
     38 H5          7.6810   -7.6810  -14.1490 H         1 UNK         0.0000
     39 H6          2.9870   -6.6090  -15.2100 H         1 UNK         0.0000
     40 H7          4.4780   -5.8650  -15.8340 H         1 UNK         0.0000
     41 H8          4.3470   -8.1620  -16.6490 H         1 UNK         0.0000
     42 H9          4.1080   -8.7700  -14.9910 H         1 UNK         0.0000
     43 H10         8.8780   -7.7120  -15.8460 H         1 UNK         0.0000
     44 H11        10.9790   -5.3380  -12.4900 H         1 UNK         0.0000
     45 H12         5.8250   -3.3800   -8.8190 H         1 UNK         0.0000
     46 H13         5.7640   -7.6430   -8.3740 H         1 UNK         0.0000
     47 H14         8.3410   -4.4110   -8.1350 H         1 UNK         0.0000
     48 H15         9.6990   -5.3920   -7.9980 H         1 UNK         0.0000
     49 H16         9.9490   -9.8380  -16.2290 H         1 UNK         0.0000
     50 H17         8.3080  -10.5700  -16.7500 H         1 UNK         0.0000
     51 H18         4.9670   -3.1340   -6.5270 H         1 UNK         0.0000
     52 H19         4.9140   -7.3850   -6.0800 H         1 UNK         0.0000
     53 H20         6.6990   -5.9850   -3.9650 H         1 UNK         0.0000
     54 H21         3.8740   -2.7800   -3.8170 H         1 UNK         0.0000
     55 H22         8.1090   -4.8110   -2.3230 H         1 UNK         0.0000
     56 H23         5.2830   -1.6200   -2.1680 H         1 UNK         0.0000
     57 H24         7.4010   -2.6320   -1.4250 H         1 UNK         0.0000
@<TRIPOS>BOND
     1    1   16 2
     2    2   27 1
     3    2   28 1
     4    3   11 1
     5    3   13 1
     6    3   16 am
     7    4    5 1
     8    4    9 1
     9    4   14 1
    10    5   17 2
    11    6   14 ar
    12    6   21 ar
    13    7   18 ar
    14    7   21 ar
    15    8   18 1
    16    8   47 1
    17    8   48 1
    18    9   10 1
    19    9   11 1
    20    9   34 1
    21   10   12 1
    22   10   35 1
    23   10   36 1
    24   11   37 1
    25   11   38 1
    26   12   13 1
    27   12   39 1
    28   12   40 1
    29   13   41 1
    30   13   42 1
    31   14   15 ar
    32   15   17 1
    33   15   18 ar
    34   16   20 1
    35   17   19 1
    36   19   22 ar
    37   19   23 ar
    38   20   24 2
    39   20   43 1
    40   21   44 1
    41   22   25 ar
    42   22   45 1
    43   23   26 ar
    44   23   46 1
    45   24   49 1
    46   24   50 1
    47   25   27 ar
    48   25   51 1
    49   26   27 ar
    50   26   52 1
    51   28   29 ar
    52   28   30 ar
    53   29   31 ar
    54   29   53 1
    55   30   32 ar
    56   30   54 1
    57   31   33 ar
    58   31   55 1
    59   32   33 ar
    60   32   56 1
    61   33   57 1
