@<TRIPOS>MOLECULE
24821094
   57    61     0     0     0
SMALL
NO_CHARGES

@<TRIPOS>ATOM
      1 O1          1.1790   -9.4220   -6.4230 O.2       1 UNK         0.0000
      2 O2         12.4580   -3.4710  -10.6960 O.3       1 UNK         0.0000
      3 N1          3.2180   -8.7430   -6.9820 N.am      1 UNK         0.0000
      4 N2          5.7520   -7.0390   -9.1200 N.pl3     1 UNK         0.0000
      5 N3          6.8250   -6.1530   -8.9670 N.2       1 UNK         0.0000
      6 N4          5.2280   -8.7270  -10.8670 N.ar      1 UNK         0.0000
      7 N5          6.7900   -8.8940  -12.5640 N.ar      1 UNK         0.0000
      8 N6          8.7380   -7.5680  -12.6390 N.pl3     1 UNK         0.0000
      9 C1          4.6150   -7.1560   -8.2040 C.3       1 UNK         0.0000
     10 C2          4.9800   -6.5320   -6.8540 C.3       1 UNK         0.0000
     11 C3          4.2720   -8.6360   -8.0010 C.3       1 UNK         0.0000
     12 C4          3.7810   -6.6250   -5.9070 C.3       1 UNK         0.0000
     13 C5          3.4270   -8.0940   -5.6810 C.3       1 UNK         0.0000
     14 C6          5.9270   -7.7700  -10.2560 C.ar      1 UNK         0.0000
     15 C7          7.1380   -7.3460  -10.8340 C.ar      1 UNK         0.0000
     16 C8          2.0800   -9.4170   -7.2400 C.2       1 UNK         0.0000
     17 C9          7.6730   -6.3060   -9.9560 C.2       1 UNK         0.0000
     18 C10         7.5570   -7.9490  -12.0310 C.ar      1 UNK         0.0000
     19 C11         8.9370   -5.5560  -10.1520 C.ar      1 UNK         0.0000
     20 C12         1.9290  -10.1460   -8.5090 C.2       1 UNK         0.0000
     21 C13         5.6610   -9.2620  -11.9870 C.ar      1 UNK         0.0000
     22 C14        10.0950   -5.9530   -9.4830 C.ar      1 UNK         0.0000
     23 C15         8.9730   -4.4570  -11.0080 C.ar      1 UNK         0.0000
     24 C16         1.2240  -11.2740   -8.5470 C.2       1 UNK         0.0000
     25 C17        11.2690   -5.2540   -9.6670 C.ar      1 UNK         0.0000
     26 C18        10.1480   -3.7590  -11.1840 C.ar      1 UNK         0.0000
     27 C19        11.3000   -4.1570  -10.5170 C.ar      1 UNK         0.0000
     28 C20        12.5750   -2.2520  -10.1080 C.ar      1 UNK         0.0000
     29 C21        12.8400   -2.1570   -8.7490 C.ar      1 UNK         0.0000
     30 C22        12.4340   -1.0980  -10.8660 C.ar      1 UNK         0.0000
     31 C23        12.9590   -0.9160   -8.1550 C.ar      1 UNK         0.0000
     32 C24        12.5480    0.1400  -10.2660 C.ar      1 UNK         0.0000
     33 C25        12.8130    0.2320   -8.9120 C.ar      1 UNK         0.0000
     34 H1          3.7540   -6.6380   -8.6240 H         1 UNK         0.0000
     35 H2          5.8260   -7.0670   -6.4230 H         1 UNK         0.0000
     36 H3          5.2480   -5.4860   -6.9990 H         1 UNK         0.0000
     37 H4          5.1590   -9.1740   -7.6660 H         1 UNK         0.0000
     38 H5          3.9170   -9.0600   -8.9390 H         1 UNK         0.0000
     39 H6          4.0330   -6.1600   -4.9540 H         1 UNK         0.0000
     40 H7          2.9280   -6.1110   -6.3480 H         1 UNK         0.0000
     41 H8          2.5140   -8.1600   -5.0900 H         1 UNK         0.0000
     42 H9          4.2430   -8.5860   -5.1530 H         1 UNK         0.0000
     43 H10         2.3920   -9.7670   -9.4070 H         1 UNK         0.0000
     44 H11         5.0680  -10.0340  -12.4550 H         1 UNK         0.0000
     45 H12        10.0720   -6.8080   -8.8230 H         1 UNK         0.0000
     46 H13         8.0780   -4.1500  -11.5320 H         1 UNK         0.0000
     47 H14         9.4850   -8.1870  -12.6780 H         1 UNK         0.0000
     48 H15         8.8210   -6.6830  -13.0280 H         1 UNK         0.0000
     49 H16         1.1160  -11.8110   -9.4780 H         1 UNK         0.0000
     50 H17         0.7600  -11.6510   -7.6480 H         1 UNK         0.0000
     51 H18        12.1670   -5.5610   -9.1500 H         1 UNK         0.0000
     52 H19        10.1760   -2.9050  -11.8450 H         1 UNK         0.0000
     53 H20        12.9540   -3.0530   -8.1570 H         1 UNK         0.0000
     54 H21        12.2330   -1.1680  -11.9250 H         1 UNK         0.0000
     55 H22        13.1650   -0.8410   -7.0960 H         1 UNK         0.0000
     56 H23        12.4350    1.0390  -10.8550 H         1 UNK         0.0000
     57 H24        12.9050    1.2020   -8.4440 H         1 UNK         0.0000
@<TRIPOS>BOND
     1    1   16 2
     2    2   27 1
     3    2   28 1
     4    3   11 1
     5    3   13 1
     6    3   16 am
     7    4    5 1
     8    4    9 1
     9    4   14 1
    10    5   17 2
    11    6   14 ar
    12    6   21 ar
    13    7   18 ar
    14    7   21 ar
    15    8   18 1
    16    8   47 1
    17    8   48 1
    18    9   10 1
    19    9   11 1
    20    9   34 1
    21   10   12 1
    22   10   35 1
    23   10   36 1
    24   11   37 1
    25   11   38 1
    26   12   13 1
    27   12   39 1
    28   12   40 1
    29   13   41 1
    30   13   42 1
    31   14   15 ar
    32   15   17 1
    33   15   18 ar
    34   16   20 1
    35   17   19 1
    36   19   22 ar
    37   19   23 ar
    38   20   24 2
    39   20   43 1
    40   21   44 1
    41   22   25 ar
    42   22   45 1
    43   23   26 ar
    44   23   46 1
    45   24   49 1
    46   24   50 1
    47   25   27 ar
    48   25   51 1
    49   26   27 ar
    50   26   52 1
    51   28   29 ar
    52   28   30 ar
    53   29   31 ar
    54   29   53 1
    55   30   32 ar
    56   30   54 1
    57   31   33 ar
    58   31   55 1
    59   32   33 ar
    60   32   56 1
    61   33   57 1
