@<TRIPOS>MOLECULE
24821094
   57    61     0     0     0
SMALL
NO_CHARGES

@<TRIPOS>ATOM
      1 O1         10.7450   -1.1880  -15.7010 O.2       1 UNK         0.0000
      2 O2          4.8100   -4.9010   -4.7650 O.3       1 UNK         0.0000
      3 N1          9.8930   -2.0640  -13.8450 N.am      1 UNK         0.0000
      4 N2          7.9370   -4.5340  -11.8550 N.pl3     1 UNK         0.0000
      5 N3          7.7970   -4.3200  -10.4800 N.2       1 UNK         0.0000
      6 N4          6.5400   -5.7760  -13.4930 N.ar      1 UNK         0.0000
      7 N5          4.6440   -6.7650  -12.6100 N.ar      1 UNK         0.0000
      8 N6          4.0720   -6.6110  -10.3270 N.pl3     1 UNK         0.0000
      9 C1          9.0360   -4.0320  -12.6830 C.3       1 UNK         0.0000
     10 C2         10.3330   -4.0400  -11.8690 C.3       1 UNK         0.0000
     11 C3          8.7270   -2.5980  -13.1280 C.3       1 UNK         0.0000
     12 C4         11.4880   -3.5460  -12.7430 C.3       1 UNK         0.0000
     13 C5         11.2080   -2.1130  -13.1910 C.3       1 UNK         0.0000
     14 C6          6.8940   -5.2880  -12.3050 C.ar      1 UNK         0.0000
     15 C7          6.0720   -5.5530  -11.1940 C.ar      1 UNK         0.0000
     16 C8          9.7600   -1.5450  -15.0820 C.2       1 UNK         0.0000
     17 C9          6.7030   -4.9010  -10.0470 C.2       1 UNK         0.0000
     18 C10         4.9130   -6.3220  -11.3850 C.ar      1 UNK         0.0000
     19 C11         6.2020   -4.9000   -8.6510 C.ar      1 UNK         0.0000
     20 C12         8.4240   -1.4100  -15.6830 C.2       1 UNK         0.0000
     21 C13         5.4440   -6.4910  -13.6250 C.ar      1 UNK         0.0000
     22 C14         6.5200   -5.9550   -7.7950 C.ar      1 UNK         0.0000
     23 C15         5.4180   -3.8440   -8.1900 C.ar      1 UNK         0.0000
     24 C16         8.2680   -0.7180  -16.8080 C.2       1 UNK         0.0000
     25 C17         6.0530   -5.9520   -6.4980 C.ar      1 UNK         0.0000
     26 C18         4.9500   -3.8490   -6.8940 C.ar      1 UNK         0.0000
     27 C19         5.2680   -4.9010   -6.0430 C.ar      1 UNK         0.0000
     28 C20         5.5130   -4.2040   -3.8350 C.ar      1 UNK         0.0000
     29 C21         4.9950   -3.0290   -3.3070 C.ar      1 UNK         0.0000
     30 C22         6.7490   -4.6670   -3.4070 C.ar      1 UNK         0.0000
     31 C23         5.7120   -2.3240   -2.3610 C.ar      1 UNK         0.0000
     32 C24         7.4640   -3.9540   -2.4650 C.ar      1 UNK         0.0000
     33 C25         6.9450   -2.7850   -1.9400 C.ar      1 UNK         0.0000
     34 H1          9.1520   -4.6680  -13.5600 H         1 UNK         0.0000
     35 H2         10.2240   -3.3840  -11.0050 H         1 UNK         0.0000
     36 H3         10.5420   -5.0550  -11.5300 H         1 UNK         0.0000
     37 H4          8.5220   -1.9800  -12.2540 H         1 UNK         0.0000
     38 H5          7.8620   -2.6000  -13.7890 H         1 UNK         0.0000
     39 H6         12.4160   -3.5740  -12.1700 H         1 UNK         0.0000
     40 H7         11.5820   -4.1870  -13.6180 H         1 UNK         0.0000
     41 H8         11.9770   -1.7940  -13.8940 H         1 UNK         0.0000
     42 H9         11.2080   -1.4550  -12.3220 H         1 UNK         0.0000
     43 H10         7.5700   -1.8700  -15.2090 H         1 UNK         0.0000
     44 H11         5.1880   -6.8720  -14.6020 H         1 UNK         0.0000
     45 H12         7.1320   -6.7720   -8.1480 H         1 UNK         0.0000
     46 H13         5.1740   -3.0240   -8.8500 H         1 UNK         0.0000
     47 H14         4.4240   -7.0430   -9.5330 H         1 UNK         0.0000
     48 H15         3.1300   -6.3830  -10.3790 H         1 UNK         0.0000
     49 H16         7.2870   -0.6150  -17.2470 H         1 UNK         0.0000
     50 H17         9.1230   -0.2580  -17.2820 H         1 UNK         0.0000
     51 H18         6.2990   -6.7680   -5.8340 H         1 UNK         0.0000
     52 H19         4.3390   -3.0340   -6.5370 H         1 UNK         0.0000
     53 H20         4.0310   -2.6690   -3.6360 H         1 UNK         0.0000
     54 H21         7.1530   -5.5840   -3.8120 H         1 UNK         0.0000
     55 H22         5.3090   -1.4090   -1.9500 H         1 UNK         0.0000
     56 H23         8.4290   -4.3130   -2.1340 H         1 UNK         0.0000
     57 H24         7.5050   -2.2300   -1.2010 H         1 UNK         0.0000
@<TRIPOS>BOND
     1    1   16 2
     2    2   27 1
     3    2   28 1
     4    3   11 1
     5    3   13 1
     6    3   16 am
     7    4    5 1
     8    4    9 1
     9    4   14 1
    10    5   17 2
    11    6   14 ar
    12    6   21 ar
    13    7   18 ar
    14    7   21 ar
    15    8   18 1
    16    8   47 1
    17    8   48 1
    18    9   10 1
    19    9   11 1
    20    9   34 1
    21   10   12 1
    22   10   35 1
    23   10   36 1
    24   11   37 1
    25   11   38 1
    26   12   13 1
    27   12   39 1
    28   12   40 1
    29   13   41 1
    30   13   42 1
    31   14   15 ar
    32   15   17 1
    33   15   18 ar
    34   16   20 1
    35   17   19 1
    36   19   22 ar
    37   19   23 ar
    38   20   24 2
    39   20   43 1
    40   21   44 1
    41   22   25 ar
    42   22   45 1
    43   23   26 ar
    44   23   46 1
    45   24   49 1
    46   24   50 1
    47   25   27 ar
    48   25   51 1
    49   26   27 ar
    50   26   52 1
    51   28   29 ar
    52   28   30 ar
    53   29   31 ar
    54   29   53 1
    55   30   32 ar
    56   30   54 1
    57   31   33 ar
    58   31   55 1
    59   32   33 ar
    60   32   56 1
    61   33   57 1
