# created with PyMOL 2.4.1
@<TRIPOS>MOLECULE
10302451
70 75 1                 
SMALL
USER_CHARGES
@<TRIPOS>ATOM
1	  Cl	-6.875	-6.704	6.356	Cl	1	UNK0	0.000	
2	   O	-2.924	-7.492	5.049	O.3	1	UNK0	0.000	
3	   O	-2.454	-3.503	4.071	O.3	1	UNK0	0.000	
4	   O	0.829	-10.337	4.564	O.3	1	UNK0	0.000	
5	   O	-6.173	-8.713	1.647	O.3	1	UNK0	0.000	
6	   O	-8.150	-7.669	0.746	O.3	1	UNK0	0.000	
7	   N	3.895	-8.502	3.666	N.3	1	UNK0	0.000	
8	   N	5.835	-6.970	2.167	N.3	1	UNK0	0.000	
9	   N	-5.296	-8.416	4.385	N.pl3	1	UNK0	0.000	
10	   N	-3.488	-11.992	3.365	N.2	1	UNK0	0.000	
11	   N	-5.444	-10.602	3.585	N.2	1	UNK0	0.000	
12	   C	3.506	-7.735	2.477	C.3	1	UNK0	0.000	
13	   C	5.293	-8.938	3.559	C.3	1	UNK0	0.000	
14	   C	4.437	-6.534	2.274	C.3	1	UNK0	0.000	
15	   C	6.225	-7.739	3.355	C.3	1	UNK0	0.000	
16	   C	3.008	-9.647	3.859	C.3	1	UNK0	0.000	
17	   C	-2.416	-6.365	4.347	C.3	1	UNK0	0.000	
18	   C	-3.555	-5.626	3.648	C.3	1	UNK0	0.000	
19	   C	-1.709	-5.439	5.333	C.3	1	UNK0	0.000	
20	   C	1.663	-9.197	4.409	C.3	1	UNK0	0.000	
21	   C	6.722	-5.824	1.976	C.3	1	UNK0	0.000	
22	   C	-3.061	-4.311	3.062	C.3	1	UNK0	0.000	
23	   C	-1.314	-4.135	4.656	C.3	1	UNK0	0.000	
24	   C	-2.448	-8.716	4.680	C.2	1	UNK0	0.000	
25	   C	-0.522	-10.135	4.446	C.2	1	UNK0	0.000	
26	   C	-3.264	-9.753	4.195	C.2	1	UNK0	0.000	
27	   C	-1.076	-8.911	4.804	C.2	1	UNK0	0.000	
28	   C	-2.716	-10.994	3.830	C.2	1	UNK0	0.000	
29	   C	-1.340	-11.161	3.964	C.2	1	UNK0	0.000	
30	   C	-4.642	-9.624	4.047	C.2	1	UNK0	0.000	
31	   C	-6.455	-7.792	3.890	C.2	1	UNK0	0.000	
32	   C	-4.809	-11.742	3.268	C.2	1	UNK0	0.000	
33	   C	-6.832	-7.966	2.574	C.2	1	UNK0	0.000	
34	   C	-7.961	-7.370	2.060	C.2	1	UNK0	0.000	
35	   C	-7.262	-6.984	4.694	C.2	1	UNK0	0.000	
36	   C	-8.775	-6.568	2.833	C.2	1	UNK0	0.000	
37	   C	-8.415	-6.375	4.169	C.2	1	UNK0	0.000	
38	   C	-7.014	-8.521	0.491	C.3	1	UNK0	0.000	
39	   H	3.522	-8.367	1.579	 H	1	UNK0	0.000	
40	   H	2.492	-7.334	2.574	 H	1	UNK0	0.000	
41	   H	5.418	-9.650	2.732	 H	1	UNK0	0.000	
42	   H	5.595	-9.451	4.481	 H	1	UNK0	0.000	
43	   H	4.139	-6.019	1.353	 H	1	UNK0	0.000	
44	   H	4.310	-5.824	3.102	 H	1	UNK0	0.000	
45	   H	6.213	-7.105	4.253	 H	1	UNK0	0.000	
46	   H	7.248	-8.114	3.234	 H	1	UNK0	0.000	
47	   H	3.437	-10.345	4.590	 H	1	UNK0	0.000	
48	   H	2.877	-10.231	2.938	 H	1	UNK0	0.000	
49	   H	-1.697	-6.664	3.570	 H	1	UNK0	0.000	
50	   H	-3.991	-6.251	2.863	 H	1	UNK0	0.000	
51	   H	-4.351	-5.425	4.376	 H	1	UNK0	0.000	
52	   H	-2.389	-5.227	6.169	 H	1	UNK0	0.000	
53	   H	-0.830	-5.924	5.769	 H	1	UNK0	0.000	
54	   H	1.796	-8.715	5.385	 H	1	UNK0	0.000	
55	   H	1.205	-8.485	3.715	 H	1	UNK0	0.000	
56	   H	6.684	-5.124	2.818	 H	1	UNK0	0.000	
57	   H	7.759	-6.157	1.851	 H	1	UNK0	0.000	
58	   H	6.456	-5.280	1.063	 H	1	UNK0	0.000	
59	   H	-2.344	-4.480	2.250	 H	1	UNK0	0.000	
60	   H	-3.904	-3.749	2.647	 H	1	UNK0	0.000	
61	   H	-0.894	-3.444	5.394	 H	1	UNK0	0.000	
62	   H	-0.553	-4.299	3.885	 H	1	UNK0	0.000	
63	   H	-0.463	-8.121	5.224	 H	1	UNK0	0.000	
64	   H	-0.887	-12.112	3.689	 H	1	UNK0	0.000	
65	   H	-4.966	-8.015	5.258	 H	1	UNK0	0.000	
66	   H	-5.425	-12.550	2.892	 H	1	UNK0	0.000	
67	   H	-9.663	-6.100	2.424	 H	1	UNK0	0.000	
68	   H	-9.042	-5.746	4.797	 H	1	UNK0	0.000	
69	   H	-6.414	-8.075	-0.310	 H	1	UNK0	0.000	
70	   H	-7.377	-9.499	0.156	 H	1	UNK0	0.000	
@<TRIPOS>BOND
1 1 35 1
2 2 17 1
3 2 24 1
4 3 22 1
5 3 23 1
6 4 20 1
7 4 25 1
8 5 33 1
9 5 38 1
10 6 34 1
11 6 38 1
12 7 12 1
13 7 13 1
14 7 16 1
15 8 14 1
16 8 15 1
17 8 21 1
18 9 30 1
19 9 31 1
20 9 65 1
21 10 28 1
22 10 32 2
23 11 30 2
24 11 32 1
25 12 14 1
26 12 39 1
27 12 40 1
28 13 15 1
29 13 41 1
30 13 42 1
31 14 43 1
32 14 44 1
33 15 45 1
34 15 46 1
35 16 20 1
36 16 47 1
37 16 48 1
38 17 18 1
39 17 19 1
40 17 49 1
41 18 22 1
42 18 50 1
43 18 51 1
44 19 23 1
45 19 52 1
46 19 53 1
47 20 54 1
48 20 55 1
49 21 56 1
50 21 57 1
51 21 58 1
52 22 59 1
53 22 60 1
54 23 61 1
55 23 62 1
56 24 26 1
57 24 27 2
58 25 27 1
59 25 29 2
60 26 28 2
61 26 30 1
62 27 63 1
63 28 29 1
64 29 64 1
65 31 33 1
66 31 35 2
67 32 66 1
68 33 34 2
69 34 36 1
70 35 37 1
71 36 37 2
72 36 67 1
73 37 68 1
74 38 69 1
75 38 70 1
@<TRIPOS>SUBSTRUCTURE
1	UNK0	1	GROUP	1 ****	UNK
