# created with PyMOL 2.4.1
@<TRIPOS>MOLECULE
5328940
65 68 1                 
SMALL
USER_CHARGES
@<TRIPOS>ATOM
1	  Cl	-1.158	-7.717	8.204	Cl	1	UNK0	0.000	
2	  Cl	-4.180	-9.333	4.071	Cl	1	UNK0	0.000	
3	   O	5.444	-3.246	5.339	O.3	1	UNK0	0.000	
4	   O	4.530	-5.677	6.338	O.3	1	UNK0	0.000	
5	   O	-3.231	-6.790	2.780	O.3	1	UNK0	0.000	
6	   N	8.136	-5.424	5.027	N.3	1	UNK0	0.000	
7	   N	9.213	-8.106	5.063	N.3	1	UNK0	0.000	
8	   N	-0.532	-5.323	6.441	N.pl3	1	UNK0	0.000	
9	   N	0.959	-1.692	4.942	N.2	1	UNK0	0.000	
10	   N	-3.470	-3.339	5.802	N.1	1	UNK0	0.000	
11	   C	8.370	-6.134	6.290	C.3	1	UNK0	0.000	
12	   C	9.081	-5.879	4.000	C.3	1	UNK0	0.000	
13	   C	8.268	-7.650	6.090	C.3	1	UNK0	0.000	
14	   C	8.981	-7.395	3.800	C.3	1	UNK0	0.000	
15	   C	8.234	-3.978	5.219	C.3	1	UNK0	0.000	
16	   C	7.496	-3.245	4.104	C.3	1	UNK0	0.000	
17	   C	9.113	-9.552	4.870	C.3	1	UNK0	0.000	
18	   C	6.015	-3.599	4.087	C.3	1	UNK0	0.000	
19	   C	4.102	-3.480	5.495	C.2	1	UNK0	0.000	
20	   C	3.651	-4.696	5.995	C.2	1	UNK0	0.000	
21	   C	1.363	-3.910	5.795	C.2	1	UNK0	0.000	
22	   C	3.186	-2.484	5.147	C.2	1	UNK0	0.000	
23	   C	1.814	-2.673	5.287	C.2	1	UNK0	0.000	
24	   C	2.284	-4.912	6.145	C.2	1	UNK0	0.000	
25	   C	-0.018	-4.100	5.936	C.2	1	UNK0	0.000	
26	   C	-0.902	-3.091	5.582	C.2	1	UNK0	0.000	
27	   C	-0.366	-1.916	5.094	C.2	1	UNK0	0.000	
28	   C	-1.395	-6.283	5.894	C.2	1	UNK0	0.000	
29	   C	-1.896	-6.078	4.609	C.2	1	UNK0	0.000	
30	   C	3.980	-6.893	6.843	C.3	1	UNK0	0.000	
31	   C	-1.755	-7.425	6.609	C.2	1	UNK0	0.000	
32	   C	-2.757	-7.016	4.038	C.2	1	UNK0	0.000	
33	   C	-2.319	-3.228	5.703	C.1	1	UNK0	0.000	
34	   C	-2.616	-8.363	6.039	C.2	1	UNK0	0.000	
35	   C	-3.117	-8.158	4.753	C.2	1	UNK0	0.000	
36	   C	-2.805	-5.594	2.132	C.3	1	UNK0	0.000	
37	   H	7.617	-5.838	7.030	 H	1	UNK0	0.000	
38	   H	9.355	-5.880	6.705	 H	1	UNK0	0.000	
39	   H	10.113	-5.615	4.271	 H	1	UNK0	0.000	
40	   H	8.868	-5.407	3.036	 H	1	UNK0	0.000	
41	   H	7.238	-7.918	5.820	 H	1	UNK0	0.000	
42	   H	8.494	-8.140	7.045	 H	1	UNK0	0.000	
43	   H	9.734	-7.696	3.062	 H	1	UNK0	0.000	
44	   H	7.996	-7.647	3.384	 H	1	UNK0	0.000	
45	   H	7.788	-3.687	6.178	 H	1	UNK0	0.000	
46	   H	9.280	-3.647	5.261	 H	1	UNK0	0.000	
47	   H	7.939	-3.438	3.122	 H	1	UNK0	0.000	
48	   H	7.599	-2.168	4.289	 H	1	UNK0	0.000	
49	   H	9.332	-10.080	5.805	 H	1	UNK0	0.000	
50	   H	9.851	-9.894	4.136	 H	1	UNK0	0.000	
51	   H	8.118	-9.857	4.527	 H	1	UNK0	0.000	
52	   H	5.523	-3.029	3.289	 H	1	UNK0	0.000	
53	   H	5.860	-4.665	3.883	 H	1	UNK0	0.000	
54	   H	3.559	-1.538	4.758	 H	1	UNK0	0.000	
55	   H	1.897	-5.850	6.523	 H	1	UNK0	0.000	
56	   H	-0.085	-5.621	7.304	 H	1	UNK0	0.000	
57	   H	-0.997	-1.083	4.796	 H	1	UNK0	0.000	
58	   H	-1.550	-5.217	4.055	 H	1	UNK0	0.000	
59	   H	4.822	-7.557	7.067	 H	1	UNK0	0.000	
60	   H	3.368	-7.403	6.091	 H	1	UNK0	0.000	
61	   H	3.443	-6.735	7.784	 H	1	UNK0	0.000	
62	   H	-2.897	-9.254	6.596	 H	1	UNK0	0.000	
63	   H	-3.141	-4.698	2.667	 H	1	UNK0	0.000	
64	   H	-1.725	-5.595	1.947	 H	1	UNK0	0.000	
65	   H	-3.290	-5.572	1.151	 H	1	UNK0	0.000	
@<TRIPOS>BOND
1 1 31 1
2 2 35 1
3 3 18 1
4 3 19 1
5 4 20 1
6 4 30 1
7 5 32 1
8 5 36 1
9 6 11 1
10 6 12 1
11 6 15 1
12 7 13 1
13 7 14 1
14 7 17 1
15 8 25 1
16 8 28 1
17 8 56 1
18 9 23 1
19 9 27 2
20 10 33 3
21 11 13 1
22 11 37 1
23 11 38 1
24 12 14 1
25 12 39 1
26 12 40 1
27 13 41 1
28 13 42 1
29 14 43 1
30 14 44 1
31 15 16 1
32 15 45 1
33 15 46 1
34 16 18 1
35 16 47 1
36 16 48 1
37 17 49 1
38 17 50 1
39 17 51 1
40 18 52 1
41 18 53 1
42 19 20 2
43 19 22 1
44 20 24 1
45 21 23 1
46 21 24 2
47 21 25 1
48 22 23 2
49 22 54 1
50 24 55 1
51 25 26 2
52 26 27 1
53 26 33 1
54 27 57 1
55 28 29 2
56 28 31 1
57 29 32 1
58 29 58 1
59 30 59 1
60 30 60 1
61 30 61 1
62 31 34 2
63 32 35 2
64 34 35 1
65 34 62 1
66 36 63 1
67 36 64 1
68 36 65 1
@<TRIPOS>SUBSTRUCTURE
1	UNK0	1	GROUP	1 ****	UNK
