# created with PyMOL 2.4.1
@<TRIPOS>MOLECULE
5328940
65 68 1                 
SMALL
USER_CHARGES
@<TRIPOS>ATOM
1	  Cl	6.194	-39.482	-4.144	Cl	1	UNK0	0.000	
2	  Cl	3.172	-41.098	-8.276	Cl	1	UNK0	0.000	
3	   O	12.796	-35.010	-7.008	O.3	1	UNK0	0.000	
4	   O	11.882	-37.442	-6.009	O.3	1	UNK0	0.000	
5	   O	4.121	-38.555	-9.567	O.3	1	UNK0	0.000	
6	   N	15.488	-37.188	-7.320	N.3	1	UNK0	0.000	
7	   N	16.565	-39.871	-7.285	N.3	1	UNK0	0.000	
8	   N	6.820	-37.087	-5.906	N.pl3	1	UNK0	0.000	
9	   N	8.311	-33.457	-7.405	N.2	1	UNK0	0.000	
10	   N	3.881	-35.103	-6.545	N.1	1	UNK0	0.000	
11	   C	15.722	-37.899	-6.057	C.3	1	UNK0	0.000	
12	   C	16.433	-37.644	-8.347	C.3	1	UNK0	0.000	
13	   C	15.620	-39.415	-6.258	C.3	1	UNK0	0.000	
14	   C	16.333	-39.160	-8.547	C.3	1	UNK0	0.000	
15	   C	15.586	-35.743	-7.128	C.3	1	UNK0	0.000	
16	   C	14.848	-35.009	-8.243	C.3	1	UNK0	0.000	
17	   C	16.465	-41.316	-7.477	C.3	1	UNK0	0.000	
18	   C	13.367	-35.364	-8.260	C.3	1	UNK0	0.000	
19	   C	11.454	-35.245	-6.852	C.2	1	UNK0	0.000	
20	   C	11.003	-36.460	-6.352	C.2	1	UNK0	0.000	
21	   C	8.715	-35.674	-6.552	C.2	1	UNK0	0.000	
22	   C	10.538	-34.249	-7.200	C.2	1	UNK0	0.000	
23	   C	9.166	-34.438	-7.060	C.2	1	UNK0	0.000	
24	   C	9.636	-36.676	-6.202	C.2	1	UNK0	0.000	
25	   C	7.334	-35.865	-6.411	C.2	1	UNK0	0.000	
26	   C	6.450	-34.856	-6.765	C.2	1	UNK0	0.000	
27	   C	6.986	-33.681	-7.253	C.2	1	UNK0	0.000	
28	   C	5.957	-38.048	-6.453	C.2	1	UNK0	0.000	
29	   C	5.456	-37.843	-7.739	C.2	1	UNK0	0.000	
30	   C	11.332	-38.658	-5.505	C.3	1	UNK0	0.000	
31	   C	5.597	-39.190	-5.738	C.2	1	UNK0	0.000	
32	   C	4.595	-38.780	-8.309	C.2	1	UNK0	0.000	
33	   C	5.032	-34.992	-6.644	C.1	1	UNK0	0.000	
34	   C	4.736	-40.128	-6.309	C.2	1	UNK0	0.000	
35	   C	4.235	-39.923	-7.594	C.2	1	UNK0	0.000	
36	   C	4.547	-37.358	-10.215	C.3	1	UNK0	0.000	
37	   H	14.969	-37.602	-5.318	 H	1	UNK0	0.000	
38	   H	16.707	-37.644	-5.642	 H	1	UNK0	0.000	
39	   H	17.465	-37.379	-8.076	 H	1	UNK0	0.000	
40	   H	16.220	-37.172	-9.312	 H	1	UNK0	0.000	
41	   H	14.590	-39.683	-6.527	 H	1	UNK0	0.000	
42	   H	15.846	-39.905	-5.303	 H	1	UNK0	0.000	
43	   H	17.086	-39.461	-9.286	 H	1	UNK0	0.000	
44	   H	15.348	-39.412	-8.964	 H	1	UNK0	0.000	
45	   H	15.140	-35.451	-6.169	 H	1	UNK0	0.000	
46	   H	16.632	-35.411	-7.086	 H	1	UNK0	0.000	
47	   H	15.291	-35.203	-9.225	 H	1	UNK0	0.000	
48	   H	14.951	-33.933	-8.058	 H	1	UNK0	0.000	
49	   H	16.684	-41.844	-6.542	 H	1	UNK0	0.000	
50	   H	17.203	-41.658	-8.211	 H	1	UNK0	0.000	
51	   H	15.470	-41.621	-7.820	 H	1	UNK0	0.000	
52	   H	12.875	-34.794	-9.058	 H	1	UNK0	0.000	
53	   H	13.212	-36.430	-8.464	 H	1	UNK0	0.000	
54	   H	10.911	-33.302	-7.589	 H	1	UNK0	0.000	
55	   H	9.249	-37.615	-5.824	 H	1	UNK0	0.000	
56	   H	7.267	-37.386	-5.043	 H	1	UNK0	0.000	
57	   H	6.355	-32.848	-7.551	 H	1	UNK0	0.000	
58	   H	5.802	-36.981	-8.292	 H	1	UNK0	0.000	
59	   H	12.174	-39.321	-5.280	 H	1	UNK0	0.000	
60	   H	10.720	-39.167	-6.257	 H	1	UNK0	0.000	
61	   H	10.795	-38.499	-4.563	 H	1	UNK0	0.000	
62	   H	4.455	-41.019	-5.752	 H	1	UNK0	0.000	
63	   H	4.211	-36.463	-9.680	 H	1	UNK0	0.000	
64	   H	5.627	-37.360	-10.400	 H	1	UNK0	0.000	
65	   H	4.062	-37.336	-11.196	 H	1	UNK0	0.000	
@<TRIPOS>BOND
1 1 31 1
2 2 35 1
3 3 18 1
4 3 19 1
5 4 20 1
6 4 30 1
7 5 32 1
8 5 36 1
9 6 11 1
10 6 12 1
11 6 15 1
12 7 13 1
13 7 14 1
14 7 17 1
15 8 25 1
16 8 28 1
17 8 56 1
18 9 23 1
19 9 27 2
20 10 33 3
21 11 13 1
22 11 37 1
23 11 38 1
24 12 14 1
25 12 39 1
26 12 40 1
27 13 41 1
28 13 42 1
29 14 43 1
30 14 44 1
31 15 16 1
32 15 45 1
33 15 46 1
34 16 18 1
35 16 47 1
36 16 48 1
37 17 49 1
38 17 50 1
39 17 51 1
40 18 52 1
41 18 53 1
42 19 20 2
43 19 22 1
44 20 24 1
45 21 23 1
46 21 24 2
47 21 25 1
48 22 23 2
49 22 54 1
50 24 55 1
51 25 26 2
52 26 27 1
53 26 33 1
54 27 57 1
55 28 29 2
56 28 31 1
57 29 32 1
58 29 58 1
59 30 59 1
60 30 60 1
61 30 61 1
62 31 34 2
63 32 35 2
64 34 35 1
65 34 62 1
66 36 63 1
67 36 64 1
68 36 65 1
@<TRIPOS>SUBSTRUCTURE
1	UNK0	1	GROUP	1 ****	UNK
