@<TRIPOS>MOLECULE
10302451
   70    75     0     0     0
SMALL
NO_CHARGES

@<TRIPOS>ATOM
      1 Cl1       -12.3150   -1.9670   12.4780 Cl        1 UNK         0.0000
      2 O1         -8.7170   -3.6650   11.3230 O.3       1 UNK         0.0000
      3 O2        -11.3220   -3.4990    8.1060 O.3       1 UNK         0.0000
      4 O3         -7.4230   -8.1580   12.1690 O.3       1 UNK         0.0000
      5 O4         -8.1040   -0.1190   14.9580 O.3       1 UNK         0.0000
      6 O5         -9.1560    1.7230   15.7500 O.3       1 UNK         0.0000
      7 N1         -8.7410  -10.7050   13.6130 N.3       1 UNK         0.0000
      8 N2        -10.2710  -11.8370   15.7310 N.3       1 UNK         0.0000
      9 N3         -9.4550   -2.1930   13.2540 N.pl3     1 UNK         0.0000
     10 N4         -8.8090   -5.3740   15.7740 N.ar      1 UNK         0.0000
     11 N5         -9.4460   -3.1820   15.3920 N.ar      1 UNK         0.0000
     12 C1         -8.5590  -10.2480   14.9970 C.3       1 UNK         0.0000
     13 C2         -9.1430  -12.1180   13.5760 C.3       1 UNK         0.0000
     14 C3         -9.8700  -10.4230   15.7670 C.3       1 UNK         0.0000
     15 C4        -10.4540  -12.2940   14.3460 C.3       1 UNK         0.0000
     16 C5         -7.5240  -10.4830   12.8200 C.3       1 UNK         0.0000
     17 C6         -9.3160   -3.9920   10.0680 C.3       1 UNK         0.0000
     18 C7        -10.7790   -4.3900   10.2860 C.3       1 UNK         0.0000
     19 C8         -9.2620   -2.7740    9.1410 C.3       1 UNK         0.0000
     20 C9         -6.9540   -9.0990   13.1370 C.3       1 UNK         0.0000
     21 C10       -11.4870  -12.0590   16.5230 C.3       1 UNK         0.0000
     22 C11       -11.4340   -4.6620    8.9290 C.3       1 UNK         0.0000
     23 C12        -9.9760   -3.1080    7.8280 C.3       1 UNK         0.0000
     24 C13        -8.5190   -4.6860   12.1960 C.ar      1 UNK         0.0000
     25 C14        -7.8660   -6.9620   12.6360 C.ar      1 UNK         0.0000
     26 C15        -8.7710   -4.5030   13.5660 C.ar      1 UNK         0.0000
     27 C16        -8.0700   -5.9080   11.7450 C.ar      1 UNK         0.0000
     28 C17        -8.5610   -5.5740   14.4690 C.ar      1 UNK         0.0000
     29 C18        -8.1110   -6.8070   13.9850 C.ar      1 UNK         0.0000
     30 C19        -9.2320   -3.2720   14.0850 C.ar      1 UNK         0.0000
     31 C20       -10.0990   -1.0510   13.7470 C.ar      1 UNK         0.0000
     32 C21        -9.2370   -4.2090   16.1990 C.ar      1 UNK         0.0000
     33 C22        -9.4010   -0.1410   14.5350 C.ar      1 UNK         0.0000
     34 C23       -10.0460    0.9920   15.0160 C.ar      1 UNK         0.0000
     35 C24       -11.4400   -0.8290   13.4540 C.ar      1 UNK         0.0000
     36 C25       -11.3840    1.2070   14.7190 C.ar      1 UNK         0.0000
     37 C26       -12.0760    0.2980   13.9400 C.ar      1 UNK         0.0000
     38 C27        -7.8540    1.2380   15.3690 C.3       1 UNK         0.0000
     39 H1         -8.2750   -9.1950   14.9980 H         1 UNK         0.0000
     40 H2         -7.7760  -10.8370   15.4750 H         1 UNK         0.0000
     41 H3         -8.3660  -12.7290   14.0370 H         1 UNK         0.0000
     42 H4         -9.2840  -12.4300   12.5410 H         1 UNK         0.0000
     43 H5        -10.6470   -9.8130   15.3050 H         1 UNK         0.0000
     44 H6         -9.7290  -10.1120   16.8020 H         1 UNK         0.0000
     45 H7        -10.7390  -13.3460   14.3450 H         1 UNK         0.0000
     46 H8        -11.2380  -11.7050   13.8680 H         1 UNK         0.0000
     47 H9         -6.7850  -11.2450   13.0690 H         1 UNK         0.0000
     48 H10        -7.7660  -10.5430   11.7600 H         1 UNK         0.0000
     49 H11        -8.7770   -4.8230    9.6100 H         1 UNK         0.0000
     50 H12       -10.8240   -5.2900   10.8990 H         1 UNK         0.0000
     51 H13       -11.3060   -3.5790   10.7880 H         1 UNK         0.0000
     52 H14        -9.7590   -1.9300    9.6210 H         1 UNK         0.0000
     53 H15        -8.2230   -2.5180    8.9350 H         1 UNK         0.0000
     54 H16        -7.2800   -8.7910   14.1300 H         1 UNK         0.0000
     55 H17        -5.8660   -9.1400   13.1080 H         1 UNK         0.0000
     56 H18       -12.0750  -11.1420   16.5520 H         1 UNK         0.0000
     57 H19       -12.0780  -12.8540   16.0660 H         1 UNK         0.0000
     58 H20       -11.2130  -12.3490   17.5370 H         1 UNK         0.0000
     59 H21       -10.9320   -5.5010    8.4440 H         1 UNK         0.0000
     60 H22       -12.4870   -4.9040    9.0750 H         1 UNK         0.0000
     61 H23        -9.4550   -3.9260    7.3300 H         1 UNK         0.0000
     62 H24        -9.9780   -2.2300    7.1820 H         1 UNK         0.0000
     63 H25        -7.8760   -6.0510   10.6920 H         1 UNK         0.0000
     64 H26        -7.9520   -7.6310   14.6640 H         1 UNK         0.0000
     65 H27        -9.1660   -2.2260   12.3290 H         1 UNK         0.0000
     66 H28        -9.4260   -4.0820   17.2550 H         1 UNK         0.0000
     67 H29       -11.8860    2.0840   15.0970 H         1 UNK         0.0000
     68 H30       -13.1180    0.4690   13.7110 H         1 UNK         0.0000
     69 H31        -7.4560    1.8220   14.5390 H         1 UNK         0.0000
     70 H32        -7.1720    1.2640   16.2180 H         1 UNK         0.0000
@<TRIPOS>BOND
     1    1   35 1
     2    2   17 1
     3    2   24 1
     4    3   22 1
     5    3   23 1
     6    4   20 1
     7    4   25 1
     8    5   33 1
     9    5   38 1
    10    6   34 1
    11    6   38 1
    12    7   12 1
    13    7   13 1
    14    7   16 1
    15    8   14 1
    16    8   15 1
    17    8   21 1
    18    9   30 1
    19    9   31 1
    20    9   65 1
    21   10   28 ar
    22   10   32 ar
    23   11   30 ar
    24   11   32 ar
    25   12   14 1
    26   12   39 1
    27   12   40 1
    28   13   15 1
    29   13   41 1
    30   13   42 1
    31   14   43 1
    32   14   44 1
    33   15   45 1
    34   15   46 1
    35   16   20 1
    36   16   47 1
    37   16   48 1
    38   17   18 1
    39   17   19 1
    40   17   49 1
    41   18   22 1
    42   18   50 1
    43   18   51 1
    44   19   23 1
    45   19   52 1
    46   19   53 1
    47   20   54 1
    48   20   55 1
    49   21   56 1
    50   21   57 1
    51   21   58 1
    52   22   59 1
    53   22   60 1
    54   23   61 1
    55   23   62 1
    56   24   26 ar
    57   24   27 ar
    58   25   27 ar
    59   25   29 ar
    60   26   28 ar
    61   26   30 ar
    62   27   63 1
    63   28   29 ar
    64   29   64 1
    65   31   33 ar
    66   31   35 ar
    67   32   66 1
    68   33   34 ar
    69   34   36 ar
    70   35   37 ar
    71   36   37 ar
    72   36   67 1
    73   37   68 1
    74   38   69 1
    75   38   70 1
