@<TRIPOS>MOLECULE
10302451
   70    75     0     0     0
SMALL
NO_CHARGES

@<TRIPOS>ATOM
      1 Cl1        -7.0700   -8.8930   12.0140 Cl        1 UNK         0.0000
      2 O1         -8.7900   -4.6740   10.8500 O.3       1 UNK         0.0000
      3 O2        -11.0570   -3.8470    7.4830 O.3       1 UNK         0.0000
      4 O3         -7.9040   -1.0460   13.7890 O.3       1 UNK         0.0000
      5 O4        -12.1510   -7.8630   11.3730 O.3       1 UNK         0.0000
      6 O5        -12.7500  -10.0380   11.1680 O.3       1 UNK         0.0000
      7 N1        -10.5520    1.0310   15.1700 N.3       1 UNK         0.0000
      8 N2        -13.3740    0.6740   15.0410 N.3       1 UNK         0.0000
      9 N3         -9.3190   -6.9610   11.8140 N.pl3     1 UNK         0.0000
     10 N4         -8.9000   -5.3480   15.5700 N.ar      1 UNK         0.0000
     11 N5         -9.3350   -7.1340   14.1630 N.ar      1 UNK         0.0000
     12 C1        -11.2450    0.1780   16.1450 C.3       1 UNK         0.0000
     13 C2        -11.2490    1.0230   13.8760 C.3       1 UNK         0.0000
     14 C3        -12.6770    0.6830   16.3350 C.3       1 UNK         0.0000
     15 C4        -12.6800    1.5290   14.0660 C.3       1 UNK         0.0000
     16 C5         -9.1490    0.6220   15.0160 C.3       1 UNK         0.0000
     17 C6         -9.7980   -4.0830   10.0270 C.3       1 UNK         0.0000
     18 C7         -9.1380   -3.3420    8.8610 C.3       1 UNK         0.0000
     19 C8        -10.7120   -5.1790    9.4700 C.3       1 UNK         0.0000
     20 C9         -8.9740   -0.1050   13.6810 C.3       1 UNK         0.0000
     21 C10       -14.7760    1.0830   15.1950 C.3       1 UNK         0.0000
     22 C11       -10.2260   -2.7800    7.9410 C.3       1 UNK         0.0000
     23 C12       -11.7390   -4.5460    8.5270 C.3       1 UNK         0.0000
     24 C13        -8.6630   -4.1880   12.1110 C.ar      1 UNK         0.0000
     25 C14        -8.2150   -2.3560   13.6100 C.ar      1 UNK         0.0000
     26 C15        -8.8510   -5.0350   13.2170 C.ar      1 UNK         0.0000
     27 C16        -8.3490   -2.8630   12.3170 C.ar      1 UNK         0.0000
     28 C17        -8.7160   -4.5190   14.5300 C.ar      1 UNK         0.0000
     29 C18        -8.3900   -3.1710   14.7110 C.ar      1 UNK         0.0000
     30 C19        -9.1750   -6.4020   13.0670 C.ar      1 UNK         0.0000
     31 C20        -9.6970   -8.3040   11.6860 C.ar      1 UNK         0.0000
     32 C21        -9.2000   -6.6100   15.3700 C.ar      1 UNK         0.0000
     33 C22       -11.0330   -8.6380   11.4880 C.ar      1 UNK         0.0000
     34 C23       -11.3990   -9.9720   11.3570 C.ar      1 UNK         0.0000
     35 C24        -8.7360   -9.3060   11.7610 C.ar      1 UNK         0.0000
     36 C25       -10.4340  -10.9660   11.4330 C.ar      1 UNK         0.0000
     37 C26        -9.1090  -10.6320   11.6340 C.ar      1 UNK         0.0000
     38 C27       -13.1480   -8.7110   10.7720 C.3       1 UNK         0.0000
     39 H1        -10.7180    0.2110   17.0980 H         1 UNK         0.0000
     40 H2        -11.2680   -0.8490   15.7770 H         1 UNK         0.0000
     41 H3        -11.2710    0.0060   13.4830 H         1 UNK         0.0000
     42 H4        -10.7230    1.6720   13.1760 H         1 UNK         0.0000
     43 H5        -12.6540    1.7010   16.7280 H         1 UNK         0.0000
     44 H6        -13.2020    0.0340   17.0350 H         1 UNK         0.0000
     45 H7        -13.2080    1.4950   13.1130 H         1 UNK         0.0000
     46 H8        -12.6570    2.5550   14.4340 H         1 UNK         0.0000
     47 H9         -8.5100    1.5050   15.0340 H         1 UNK         0.0000
     48 H10        -8.8730   -0.0440   15.8320 H         1 UNK         0.0000
     49 H11       -10.3880   -3.3810   10.6180 H         1 UNK         0.0000
     50 H12        -8.5290   -2.5240    9.2470 H         1 UNK         0.0000
     51 H13        -8.5080   -4.0320    8.3000 H         1 UNK         0.0000
     52 H14       -10.1130   -5.9070    8.9210 H         1 UNK         0.0000
     53 H15       -11.2280   -5.6750   10.2910 H         1 UNK         0.0000
     54 H16        -9.8950   -0.6300   13.4300 H         1 UNK         0.0000
     55 H17        -8.7450    0.6190   12.9000 H         1 UNK         0.0000
     56 H18       -15.4140    0.2000   15.1920 H         1 UNK         0.0000
     57 H19       -14.8970    1.6150   16.1380 H         1 UNK         0.0000
     58 H20       -15.0560    1.7380   14.3700 H         1 UNK         0.0000
     59 H21       -10.8300   -2.0580    8.4920 H         1 UNK         0.0000
     60 H22        -9.7620   -2.2880    7.0870 H         1 UNK         0.0000
     61 H23       -12.3620   -3.8480    9.0850 H         1 UNK         0.0000
     62 H24       -12.3640   -5.3270    8.0940 H         1 UNK         0.0000
     63 H25        -8.2040   -2.2100   11.4690 H         1 UNK         0.0000
     64 H26        -8.2800   -2.7680   15.7070 H         1 UNK         0.0000
     65 H27        -9.1580   -6.4250   11.0220 H         1 UNK         0.0000
     66 H28        -9.3420   -7.2490   16.2290 H         1 UNK         0.0000
     67 H29       -10.7200  -12.0020   11.3360 H         1 UNK         0.0000
     68 H30        -8.3610  -11.4090   11.6930 H         1 UNK         0.0000
     69 H31       -13.1290   -8.6140    9.6870 H         1 UNK         0.0000
     70 H32       -14.1380   -8.4760   11.1600 H         1 UNK         0.0000
@<TRIPOS>BOND
     1    1   35 1
     2    2   17 1
     3    2   24 1
     4    3   22 1
     5    3   23 1
     6    4   20 1
     7    4   25 1
     8    5   33 1
     9    5   38 1
    10    6   34 1
    11    6   38 1
    12    7   12 1
    13    7   13 1
    14    7   16 1
    15    8   14 1
    16    8   15 1
    17    8   21 1
    18    9   30 1
    19    9   31 1
    20    9   65 1
    21   10   28 ar
    22   10   32 ar
    23   11   30 ar
    24   11   32 ar
    25   12   14 1
    26   12   39 1
    27   12   40 1
    28   13   15 1
    29   13   41 1
    30   13   42 1
    31   14   43 1
    32   14   44 1
    33   15   45 1
    34   15   46 1
    35   16   20 1
    36   16   47 1
    37   16   48 1
    38   17   18 1
    39   17   19 1
    40   17   49 1
    41   18   22 1
    42   18   50 1
    43   18   51 1
    44   19   23 1
    45   19   52 1
    46   19   53 1
    47   20   54 1
    48   20   55 1
    49   21   56 1
    50   21   57 1
    51   21   58 1
    52   22   59 1
    53   22   60 1
    54   23   61 1
    55   23   62 1
    56   24   26 ar
    57   24   27 ar
    58   25   27 ar
    59   25   29 ar
    60   26   28 ar
    61   26   30 ar
    62   27   63 1
    63   28   29 ar
    64   29   64 1
    65   31   33 ar
    66   31   35 ar
    67   32   66 1
    68   33   34 ar
    69   34   36 ar
    70   35   37 ar
    71   36   37 ar
    72   36   67 1
    73   37   68 1
    74   38   69 1
    75   38   70 1
