@<TRIPOS>MOLECULE
5328940
   65    68     0     0     0
SMALL
NO_CHARGES

@<TRIPOS>ATOM
      1 Cl1         6.8010  -23.8640    4.3360 Cl        1 UNK         0.0000
      2 Cl2         4.7420  -28.8480    4.6400 Cl        1 UNK         0.0000
      3 O1          4.7710  -23.8140   -4.7480 O.3       1 UNK         0.0000
      4 O2          3.2830  -23.4180   -2.4730 O.3       1 UNK         0.0000
      5 O3          4.6030  -28.6230    1.6990 O.3       1 UNK         0.0000
      6 N1          5.4030  -27.9900   -4.2670 N.3       1 UNK         0.0000
      7 N2          7.0810  -27.8730   -1.9700 N.3       1 UNK         0.0000
      8 N3          6.4180  -24.1980    1.4060 N.pl3     1 UNK         0.0000
      9 N4          8.5900  -24.7690   -2.0940 N.ar      1 UNK         0.0000
     10 N5          9.7030  -25.0310    2.5170 N.1       1 UNK         0.0000
     11 C1          4.8940  -27.4670   -2.9920 C.3       1 UNK         0.0000
     12 C2          6.8430  -27.7280   -4.4020 C.3       1 UNK         0.0000
     13 C3          5.6410  -28.1340   -1.8350 C.3       1 UNK         0.0000
     14 C4          7.5900  -28.3950   -3.2460 C.3       1 UNK         0.0000
     15 C5          4.6560  -27.4290   -5.4010 C.3       1 UNK         0.0000
     16 C6          4.0240  -26.0990   -4.9880 C.3       1 UNK         0.0000
     17 C7          7.8270  -28.4330   -0.8360 C.3       1 UNK         0.0000
     18 C8          4.8030  -24.9450   -5.6200 C.3       1 UNK         0.0000
     19 C9          5.3550  -23.9560   -3.5300 C.ar      1 UNK         0.0000
     20 C10         4.5970  -23.7540   -2.3680 C.ar      1 UNK         0.0000
     21 C11         6.5190  -24.2380   -1.0250 C.ar      1 UNK         0.0000
     22 C12         6.6870  -24.2970   -3.4490 C.ar      1 UNK         0.0000
     23 C13         7.2930  -24.4440   -2.1920 C.ar      1 UNK         0.0000
     24 C14         5.1640  -23.8920   -1.1350 C.ar      1 UNK         0.0000
     25 C15         7.1330  -24.3880    0.2400 C.ar      1 UNK         0.0000
     26 C16         8.4910  -24.7350    0.2720 C.ar      1 UNK         0.0000
     27 C17         9.1820  -24.9200   -0.9370 C.ar      1 UNK         0.0000
     28 C18         6.0200  -25.3000    2.1700 C.ar      1 UNK         0.0000
     29 C19         5.5040  -26.4270    1.5470 C.ar      1 UNK         0.0000
     30 C20         2.3280  -24.4140   -2.0980 C.3       1 UNK         0.0000
     31 C21         6.1480  -25.2700    3.5540 C.ar      1 UNK         0.0000
     32 C22         5.1110  -27.5180    2.3060 C.ar      1 UNK         0.0000
     33 C23         9.1670  -24.9010    1.5240 C.1       1 UNK         0.0000
     34 C24         5.7500  -26.3580    4.3090 C.ar      1 UNK         0.0000
     35 C25         5.2350  -27.4810    3.6880 C.ar      1 UNK         0.0000
     36 C26         5.4920  -29.7280    1.5150 C.3       1 UNK         0.0000
     37 H1          5.0490  -26.3890   -2.9520 H         1 UNK         0.0000
     38 H2          3.8280  -27.6840   -2.9090 H         1 UNK         0.0000
     39 H3          7.1980  -28.1370   -5.3490 H         1 UNK         0.0000
     40 H4          7.0200  -26.6540   -4.3790 H         1 UNK         0.0000
     41 H5          5.4630  -29.2090   -1.8580 H         1 UNK         0.0000
     42 H6          5.2860  -27.7260   -0.8880 H         1 UNK         0.0000
     43 H7          7.4350  -29.4730   -3.2850 H         1 UNK         0.0000
     44 H8          8.6550  -28.1790   -3.3290 H         1 UNK         0.0000
     45 H9          3.8740  -28.1260   -5.7010 H         1 UNK         0.0000
     46 H10         5.3350  -27.2640   -6.2380 H         1 UNK         0.0000
     47 H11         4.0510  -26.0050   -3.9030 H         1 UNK         0.0000
     48 H12         2.9880  -26.0680   -5.3290 H         1 UNK         0.0000
     49 H13         8.1070  -29.4620   -1.0570 H         1 UNK         0.0000
     50 H14         8.7260  -27.8410   -0.6650 H         1 UNK         0.0000
     51 H15         7.2010  -28.4100    0.0560 H         1 UNK         0.0000
     52 H16         4.3500  -24.6800   -6.5750 H         1 UNK         0.0000
     53 H17         5.8380  -25.2500   -5.7810 H         1 UNK         0.0000
     54 H18         7.2620  -24.4490   -4.3500 H         1 UNK         0.0000
     55 H19         4.5710  -23.7350   -0.2450 H         1 UNK         0.0000
     56 H20         6.1910  -23.3010    1.6960 H         1 UNK         0.0000
     57 H21        10.2270  -25.1870   -0.9110 H         1 UNK         0.0000
     58 H22         5.4080  -26.4550    0.4710 H         1 UNK         0.0000
     59 H23         2.3830  -25.2510   -2.7930 H         1 UNK         0.0000
     60 H24         2.5460  -24.7640   -1.0890 H         1 UNK         0.0000
     61 H25         1.3260  -23.9840   -2.1260 H         1 UNK         0.0000
     62 H26         5.8470  -26.3320    5.3850 H         1 UNK         0.0000
     63 H27         6.4770  -29.4700    1.9040 H         1 UNK         0.0000
     64 H28         5.1060  -30.5980    2.0460 H         1 UNK         0.0000
     65 H29         5.5710  -29.9570    0.4510 H         1 UNK         0.0000
@<TRIPOS>BOND
     1    1   31 1
     2    2   35 1
     3    3   18 1
     4    3   19 1
     5    4   20 1
     6    4   30 1
     7    5   32 1
     8    5   36 1
     9    6   11 1
    10    6   12 1
    11    6   15 1
    12    7   13 1
    13    7   14 1
    14    7   17 1
    15    8   25 1
    16    8   28 1
    17    8   56 1
    18    9   23 ar
    19    9   27 ar
    20   10   33 3
    21   11   13 1
    22   11   37 1
    23   11   38 1
    24   12   14 1
    25   12   39 1
    26   12   40 1
    27   13   41 1
    28   13   42 1
    29   14   43 1
    30   14   44 1
    31   15   16 1
    32   15   45 1
    33   15   46 1
    34   16   18 1
    35   16   47 1
    36   16   48 1
    37   17   49 1
    38   17   50 1
    39   17   51 1
    40   18   52 1
    41   18   53 1
    42   19   20 ar
    43   19   22 ar
    44   20   24 ar
    45   21   23 ar
    46   21   24 ar
    47   21   25 ar
    48   22   23 ar
    49   22   54 1
    50   24   55 1
    51   25   26 ar
    52   26   27 ar
    53   26   33 1
    54   27   57 1
    55   28   29 ar
    56   28   31 ar
    57   29   32 ar
    58   29   58 1
    59   30   59 1
    60   30   60 1
    61   30   61 1
    62   31   34 ar
    63   32   35 ar
    64   34   35 ar
    65   34   62 1
    66   36   63 1
    67   36   64 1
    68   36   65 1
