@<TRIPOS>MOLECULE
5328940
   65    68     0     0     0
SMALL
NO_CHARGES

@<TRIPOS>ATOM
      1 Cl1         6.0820  -23.4750    4.7550 Cl        1 UNK         0.0000
      2 Cl2        10.9530  -25.6530    5.5910 Cl        1 UNK         0.0000
      3 O1          7.5240  -24.5560   -4.3880 O.3       1 UNK         0.0000
      4 O2          8.4220  -22.7240   -2.5480 O.3       1 UNK         0.0000
      5 O3         10.8940  -26.1110    2.6740 O.3       1 UNK         0.0000
      6 N1          3.4620  -23.3630   -4.0550 N.3       1 UNK         0.0000
      7 N2          2.5390  -25.0110   -1.9240 N.3       1 UNK         0.0000
      8 N3          6.5690  -24.1930    1.9120 N.pl3     1 UNK         0.0000
      9 N4          5.2650  -26.9190   -0.9460 N.ar      1 UNK         0.0000
     10 N5          4.6180  -26.5480    3.7460 N.1       1 UNK         0.0000
     11 C1          3.8590  -23.0870   -2.6670 C.3       1 UNK         0.0000
     12 C2          3.2410  -24.8020   -4.2600 C.3       1 UNK         0.0000
     13 C3          2.7610  -23.5720   -1.7190 C.3       1 UNK         0.0000
     14 C4          2.1430  -25.2860   -3.3120 C.3       1 UNK         0.0000
     15 C5          4.4580  -22.8430   -5.0010 C.3       1 UNK         0.0000
     16 C6          5.4130  -23.9670   -5.4070 C.3       1 UNK         0.0000
     17 C7          1.5440  -25.5310   -0.9780 C.3       1 UNK         0.0000
     18 C8          6.8550  -23.5360   -5.1320 C.3       1 UNK         0.0000
     19 C9          7.1810  -24.6930   -3.0810 C.ar      1 UNK         0.0000
     20 C10         7.6390  -23.7590   -2.1420 C.ar      1 UNK         0.0000
     21 C11         6.4990  -24.9450   -0.4010 C.ar      1 UNK         0.0000
     22 C12         6.3880  -25.7490   -2.6930 C.ar      1 UNK         0.0000
     23 C13         6.0320  -25.8930   -1.3430 C.ar      1 UNK         0.0000
     24 C14         7.3060  -23.8780   -0.8230 C.ar      1 UNK         0.0000
     25 C15         6.1380  -25.0930    0.9580 C.ar      1 UNK         0.0000
     26 C16         5.3290  -26.1850    1.3060 C.ar      1 UNK         0.0000
     27 C17         4.9120  -27.0780    0.3040 C.ar      1 UNK         0.0000
     28 C18         7.6090  -24.5400    2.7810 C.ar      1 UNK         0.0000
     29 C19         8.7480  -25.1600    2.2890 C.ar      1 UNK         0.0000
     30 C20         9.8130  -22.7970   -2.2260 C.3       1 UNK         0.0000
     31 C21         7.5040  -24.2580    4.1380 C.ar      1 UNK         0.0000
     32 C22         9.7770  -25.5030    3.1530 C.ar      1 UNK         0.0000
     33 C23         4.9320  -26.3870    2.6660 C.1       1 UNK         0.0000
     34 C24         8.5290  -24.6050    4.9980 C.ar      1 UNK         0.0000
     35 C25         9.6650  -25.2240    4.5080 C.ar      1 UNK         0.0000
     36 C26        11.7190  -25.3490    1.7900 C.3       1 UNK         0.0000
     37 H1          4.7900  -23.6100   -2.4450 H         1 UNK         0.0000
     38 H2          4.0050  -22.0150   -2.5370 H         1 UNK         0.0000
     39 H3          2.9350  -24.9780   -5.2920 H         1 UNK         0.0000
     40 H4          4.1630  -25.3440   -4.0560 H         1 UNK         0.0000
     41 H5          1.8380  -23.0290   -1.9230 H         1 UNK         0.0000
     42 H6          3.0660  -23.3950   -0.6870 H         1 UNK         0.0000
     43 H7          1.2120  -24.7630   -3.5350 H         1 UNK         0.0000
     44 H8          1.9970  -26.3580   -3.4430 H         1 UNK         0.0000
     45 H9          5.0220  -22.0400   -4.5270 H         1 UNK         0.0000
     46 H10         3.9530  -22.4580   -5.8870 H         1 UNK         0.0000
     47 H11         5.2930  -24.1790   -6.4690 H         1 UNK         0.0000
     48 H12         5.1860  -24.8640   -4.8290 H         1 UNK         0.0000
     49 H13         0.5720  -25.5910   -1.4680 H         1 UNK         0.0000
     50 H14         1.8440  -26.5240   -0.6440 H         1 UNK         0.0000
     51 H15         1.4770  -24.8630   -0.1190 H         1 UNK         0.0000
     52 H16         6.8540  -22.6090   -4.5590 H         1 UNK         0.0000
     53 H17         7.3730  -23.3780   -6.0790 H         1 UNK         0.0000
     54 H18         6.0410  -26.4630   -3.4240 H         1 UNK         0.0000
     55 H19         7.6630  -23.1530   -0.1060 H         1 UNK         0.0000
     56 H20         6.1520  -23.3200    1.9790 H         1 UNK         0.0000
     57 H21         4.2890  -27.9170    0.5730 H         1 UNK         0.0000
     58 H22         8.8340  -25.3760    1.2340 H         1 UNK         0.0000
     59 H23        10.2470  -21.7990   -2.2600 H         1 UNK         0.0000
     60 H24         9.9310  -23.2110   -1.2240 H         1 UNK         0.0000
     61 H25        10.3190  -23.4390   -2.9470 H         1 UNK         0.0000
     62 H26         8.4440  -24.3890    6.0530 H         1 UNK         0.0000
     63 H27        11.2680  -24.3700    1.6250 H         1 UNK         0.0000
     64 H28        12.7080  -25.2250    2.2320 H         1 UNK         0.0000
     65 H29        11.8100  -25.8720    0.8370 H         1 UNK         0.0000
@<TRIPOS>BOND
     1    1   31 1
     2    2   35 1
     3    3   18 1
     4    3   19 1
     5    4   20 1
     6    4   30 1
     7    5   32 1
     8    5   36 1
     9    6   11 1
    10    6   12 1
    11    6   15 1
    12    7   13 1
    13    7   14 1
    14    7   17 1
    15    8   25 1
    16    8   28 1
    17    8   56 1
    18    9   23 ar
    19    9   27 ar
    20   10   33 3
    21   11   13 1
    22   11   37 1
    23   11   38 1
    24   12   14 1
    25   12   39 1
    26   12   40 1
    27   13   41 1
    28   13   42 1
    29   14   43 1
    30   14   44 1
    31   15   16 1
    32   15   45 1
    33   15   46 1
    34   16   18 1
    35   16   47 1
    36   16   48 1
    37   17   49 1
    38   17   50 1
    39   17   51 1
    40   18   52 1
    41   18   53 1
    42   19   20 ar
    43   19   22 ar
    44   20   24 ar
    45   21   23 ar
    46   21   24 ar
    47   21   25 ar
    48   22   23 ar
    49   22   54 1
    50   24   55 1
    51   25   26 ar
    52   26   27 ar
    53   26   33 1
    54   27   57 1
    55   28   29 ar
    56   28   31 ar
    57   29   32 ar
    58   29   58 1
    59   30   59 1
    60   30   60 1
    61   30   61 1
    62   31   34 ar
    63   32   35 ar
    64   34   35 ar
    65   34   62 1
    66   36   63 1
    67   36   64 1
    68   36   65 1
