@<TRIPOS>MOLECULE
5328940
   65    68     0     0     0
SMALL
NO_CHARGES

@<TRIPOS>ATOM
      1 Cl1         3.8950  -22.8720   -1.4420 Cl        1 UNK         0.0000
      2 Cl2         3.0540  -28.1760   -2.0230 Cl        1 UNK         0.0000
      3 O1         11.3090  -23.6810   -0.7250 O.3       1 UNK         0.0000
      4 O2          8.7430  -23.6170    0.2530 O.3       1 UNK         0.0000
      5 O3          4.9660  -27.9080   -4.2580 O.3       1 UNK         0.0000
      6 N1          9.4030  -26.7930    0.1080 N.3       1 UNK         0.0000
      7 N2          6.7190  -27.6400    0.5380 N.3       1 UNK         0.0000
      8 N3          5.7190  -23.2010   -3.7670 N.pl3     1 UNK         0.0000
      9 N4          9.6380  -23.3140   -5.1540 N.ar      1 UNK         0.0000
     10 N5          5.4210  -22.9560   -7.3130 N.1       1 UNK         0.0000
     11 C1          9.0220  -27.4790    1.3510 C.3       1 UNK         0.0000
     12 C2          8.5690  -27.2450   -1.0150 C.3       1 UNK         0.0000
     13 C3          7.5530  -27.1890    1.6620 C.3       1 UNK         0.0000
     14 C4          7.0990  -26.9550   -0.7040 C.3       1 UNK         0.0000
     15 C5         10.8290  -26.9860   -0.1830 C.3       1 UNK         0.0000
     16 C6         11.6290  -25.8080    0.3770 C.3       1 UNK         0.0000
     17 C7          5.2930  -27.4490    0.8300 C.3       1 UNK         0.0000
     18 C8         12.0640  -24.8940   -0.7690 C.3       1 UNK         0.0000
     19 C9         10.2640  -23.5730   -1.5860 C.ar      1 UNK         0.0000
     20 C10         8.9540  -23.5400   -1.0880 C.ar      1 UNK         0.0000
     21 C11         8.1060  -23.3510   -3.3190 C.ar      1 UNK         0.0000
     22 C12        10.5030  -23.4960   -2.9400 C.ar      1 UNK         0.0000
     23 C13         9.4250  -23.3840   -3.8320 C.ar      1 UNK         0.0000
     24 C14         7.8900  -23.4310   -1.9350 C.ar      1 UNK         0.0000
     25 C15         7.0220  -23.2370   -4.2200 C.ar      1 UNK         0.0000
     26 C16         7.3150  -23.1630   -5.5900 C.ar      1 UNK         0.0000
     27 C17         8.6550  -23.2030   -6.0100 C.ar      1 UNK         0.0000
     28 C18         5.0890  -24.3800   -3.3560 C.ar      1 UNK         0.0000
     29 C19         5.3440  -25.5720   -4.0190 C.ar      1 UNK         0.0000
     30 C20         7.3890  -23.5180    0.7030 C.3       1 UNK         0.0000
     31 C21         4.2110  -24.3610   -2.2780 C.ar      1 UNK         0.0000
     32 C22         4.7180  -26.7390   -3.6100 C.ar      1 UNK         0.0000
     33 C23         6.2590  -23.0470   -6.5510 C.1       1 UNK         0.0000
     34 C24         3.5840  -25.5250   -1.8750 C.ar      1 UNK         0.0000
     35 C25         3.8380  -26.7130   -2.5370 C.ar      1 UNK         0.0000
     36 C26         6.1920  -28.5740   -3.9490 C.3       1 UNK         0.0000
     37 H1          9.1650  -28.5530    1.2320 H         1 UNK         0.0000
     38 H2          9.6450  -27.1180    2.1700 H         1 UNK         0.0000
     39 H3          8.8620  -26.7130   -1.9200 H         1 UNK         0.0000
     40 H4          8.7060  -28.3160   -1.1610 H         1 UNK         0.0000
     41 H5          7.4160  -26.1180    1.8080 H         1 UNK         0.0000
     42 H6          7.2600  -27.7200    2.5670 H         1 UNK         0.0000
     43 H7          6.9570  -25.8810   -0.5850 H         1 UNK         0.0000
     44 H8          6.4780  -27.3150   -1.5240 H         1 UNK         0.0000
     45 H9         10.9750  -27.0430   -1.2620 H         1 UNK         0.0000
     46 H10        11.1740  -27.9100    0.2790 H         1 UNK         0.0000
     47 H11        12.5100  -26.1830    0.8970 H         1 UNK         0.0000
     48 H12        11.0080  -25.2460    1.0750 H         1 UNK         0.0000
     49 H13         5.1380  -26.4560    1.2520 H         1 UNK         0.0000
     50 H14         4.7170  -27.5470   -0.0900 H         1 UNK         0.0000
     51 H15         4.9650  -28.2030    1.5460 H         1 UNK         0.0000
     52 H16        11.8890  -25.3960   -1.7200 H         1 UNK         0.0000
     53 H17        13.1250  -24.6640   -0.6690 H         1 UNK         0.0000
     54 H18        11.5150  -23.5220   -3.3130 H         1 UNK         0.0000
     55 H19         6.8840  -23.4060   -1.5420 H         1 UNK         0.0000
     56 H20         5.2400  -22.3590   -3.7330 H         1 UNK         0.0000
     57 H21         8.8780  -23.1450   -7.0640 H         1 UNK         0.0000
     58 H22         6.0290  -25.5910   -4.8540 H         1 UNK         0.0000
     59 H23         6.9300  -22.6250    0.2810 H         1 UNK         0.0000
     60 H24         6.8340  -24.3990    0.3800 H         1 UNK         0.0000
     61 H25         7.3720  -23.4570    1.7910 H         1 UNK         0.0000
     62 H26         2.8990  -25.5080   -1.0400 H         1 UNK         0.0000
     63 H27         6.3110  -29.4380   -4.6030 H         1 UNK         0.0000
     64 H28         7.0260  -27.8880   -4.0960 H         1 UNK         0.0000
     65 H29         6.1720  -28.9060   -2.9100 H         1 UNK         0.0000
@<TRIPOS>BOND
     1    1   31 1
     2    2   35 1
     3    3   18 1
     4    3   19 1
     5    4   20 1
     6    4   30 1
     7    5   32 1
     8    5   36 1
     9    6   11 1
    10    6   12 1
    11    6   15 1
    12    7   13 1
    13    7   14 1
    14    7   17 1
    15    8   25 1
    16    8   28 1
    17    8   56 1
    18    9   23 ar
    19    9   27 ar
    20   10   33 3
    21   11   13 1
    22   11   37 1
    23   11   38 1
    24   12   14 1
    25   12   39 1
    26   12   40 1
    27   13   41 1
    28   13   42 1
    29   14   43 1
    30   14   44 1
    31   15   16 1
    32   15   45 1
    33   15   46 1
    34   16   18 1
    35   16   47 1
    36   16   48 1
    37   17   49 1
    38   17   50 1
    39   17   51 1
    40   18   52 1
    41   18   53 1
    42   19   20 ar
    43   19   22 ar
    44   20   24 ar
    45   21   23 ar
    46   21   24 ar
    47   21   25 ar
    48   22   23 ar
    49   22   54 1
    50   24   55 1
    51   25   26 ar
    52   26   27 ar
    53   26   33 1
    54   27   57 1
    55   28   29 ar
    56   28   31 ar
    57   29   32 ar
    58   29   58 1
    59   30   59 1
    60   30   60 1
    61   30   61 1
    62   31   34 ar
    63   32   35 ar
    64   34   35 ar
    65   34   62 1
    66   36   63 1
    67   36   64 1
    68   36   65 1
