@<TRIPOS>MOLECULE
5328940
   65    68     0     0     0
SMALL
NO_CHARGES

@<TRIPOS>ATOM
      1 Cl1         3.0820  -22.7220   -1.1720 Cl        1 UNK         0.0000
      2 Cl2         3.4970  -26.1200   -5.3500 Cl        1 UNK         0.0000
      3 O1         10.4440  -24.5290    1.2670 O.3       1 UNK         0.0000
      4 O2          8.7280  -23.0160   -0.2540 O.3       1 UNK         0.0000
      5 O3          4.4870  -28.0060   -3.3040 O.3       1 UNK         0.0000
      6 N1         10.2160  -26.9080   -2.3900 N.3       1 UNK         0.0000
      7 N2          8.1220  -25.8090   -3.9750 N.3       1 UNK         0.0000
      8 N3          4.1370  -25.0040    0.4150 N.pl3     1 UNK         0.0000
      9 N4          6.8110  -27.2320    2.6920 N.ar      1 UNK         0.0000
     10 N5          2.1210  -27.4950    1.9810 N.1       1 UNK         0.0000
     11 C1         10.4760  -25.7840   -3.3010 C.3       1 UNK         0.0000
     12 C2          8.8370  -26.8640   -1.8850 C.3       1 UNK         0.0000
     13 C3          9.5030  -25.8510   -4.4800 C.3       1 UNK         0.0000
     14 C4          7.8630  -26.9310   -3.0640 C.3       1 UNK         0.0000
     15 C5         11.1820  -26.9210   -1.2830 C.3       1 UNK         0.0000
     16 C6         11.3630  -25.5000   -0.7460 C.3       1 UNK         0.0000
     17 C7          7.1570  -25.7950   -5.0820 C.3       1 UNK         0.0000
     18 C8         11.3460  -25.5260    0.7830 C.3       1 UNK         0.0000
     19 C9          9.1200  -24.8310    1.2470 C.ar      1 UNK         0.0000
     20 C10         8.2440  -24.0590    0.4710 C.ar      1 UNK         0.0000
     21 C11         6.4080  -25.4210    1.1840 C.ar      1 UNK         0.0000
     22 C12         8.6530  -25.8920    1.9890 C.ar      1 UNK         0.0000
     23 C13         7.2850  -26.2060    1.9700 C.ar      1 UNK         0.0000
     24 C14         6.9100  -24.3450    0.4360 C.ar      1 UNK         0.0000
     25 C15         5.0310  -25.7410    1.1670 C.ar      1 UNK         0.0000
     26 C16         4.6010  -26.8300    1.9390 C.ar      1 UNK         0.0000
     27 C17         5.5420  -27.5530    2.6900 C.ar      1 UNK         0.0000
     28 C18         3.9860  -25.2710   -0.9500 C.ar      1 UNK         0.0000
     29 C19         4.3150  -26.5210   -1.4540 C.ar      1 UNK         0.0000
     30 C20         8.4440  -23.0120   -1.6550 C.3       1 UNK         0.0000
     31 C21         3.5010  -24.2850   -1.8020 C.ar      1 UNK         0.0000
     32 C22         4.1650  -26.7820   -2.8070 C.ar      1 UNK         0.0000
     33 C23         3.2180  -27.2010    1.9620 C.1       1 UNK         0.0000
     34 C24         3.3570  -24.5470   -3.1520 C.ar      1 UNK         0.0000
     35 C25         3.6850  -25.7930   -3.6550 C.ar      1 UNK         0.0000
     36 C26         3.6860  -29.1110   -2.8770 C.3       1 UNK         0.0000
     37 H1         10.3380  -24.8430   -2.7680 H         1 UNK         0.0000
     38 H2         11.5000  -25.8460   -3.6710 H         1 UNK         0.0000
     39 H3          8.6660  -27.7130   -1.2230 H         1 UNK         0.0000
     40 H4          8.6800  -25.9370   -1.3360 H         1 UNK         0.0000
     41 H5          9.6600  -26.7800   -5.0290 H         1 UNK         0.0000
     42 H6          9.6730  -25.0030   -5.1420 H         1 UNK         0.0000
     43 H7          8.0020  -27.8720   -3.5970 H         1 UNK         0.0000
     44 H8          6.8400  -26.8710   -2.6930 H         1 UNK         0.0000
     45 H9         12.1400  -27.2980   -1.6420 H         1 UNK         0.0000
     46 H10        10.8140  -27.5660   -0.4860 H         1 UNK         0.0000
     47 H11        10.5510  -24.8690   -1.1080 H         1 UNK         0.0000
     48 H12        12.3160  -25.0990   -1.0920 H         1 UNK         0.0000
     49 H13         7.5730  -25.2370   -5.9200 H         1 UNK         0.0000
     50 H14         6.9470  -26.8170   -5.3940 H         1 UNK         0.0000
     51 H15         6.2330  -25.3190   -4.7510 H         1 UNK         0.0000
     52 H16        12.3480  -25.3240    1.1610 H         1 UNK         0.0000
     53 H17        11.0190  -26.5080    1.1260 H         1 UNK         0.0000
     54 H18         9.3360  -26.4800    2.5830 H         1 UNK         0.0000
     55 H19         6.2420  -23.7450   -0.1640 H         1 UNK         0.0000
     56 H20         3.6140  -24.3020    0.8320 H         1 UNK         0.0000
     57 H21         5.2110  -28.3910    3.2840 H         1 UNK         0.0000
     58 H22         4.6880  -27.2900   -0.7940 H         1 UNK         0.0000
     59 H23         9.2490  -22.5080   -2.1890 H         1 UNK         0.0000
     60 H24         8.3600  -24.0400   -2.0100 H         1 UNK         0.0000
     61 H25         7.5050  -22.4880   -1.8330 H         1 UNK         0.0000
     62 H26         2.9840  -23.7790   -3.8130 H         1 UNK         0.0000
     63 H27         4.3350  -29.9360   -2.5830 H         1 UNK         0.0000
     64 H28         3.0740  -28.8090   -2.0280 H         1 UNK         0.0000
     65 H29         3.0410  -29.4290   -3.6960 H         1 UNK         0.0000
@<TRIPOS>BOND
     1    1   31 1
     2    2   35 1
     3    3   18 1
     4    3   19 1
     5    4   20 1
     6    4   30 1
     7    5   32 1
     8    5   36 1
     9    6   11 1
    10    6   12 1
    11    6   15 1
    12    7   13 1
    13    7   14 1
    14    7   17 1
    15    8   25 1
    16    8   28 1
    17    8   56 1
    18    9   23 ar
    19    9   27 ar
    20   10   33 3
    21   11   13 1
    22   11   37 1
    23   11   38 1
    24   12   14 1
    25   12   39 1
    26   12   40 1
    27   13   41 1
    28   13   42 1
    29   14   43 1
    30   14   44 1
    31   15   16 1
    32   15   45 1
    33   15   46 1
    34   16   18 1
    35   16   47 1
    36   16   48 1
    37   17   49 1
    38   17   50 1
    39   17   51 1
    40   18   52 1
    41   18   53 1
    42   19   20 ar
    43   19   22 ar
    44   20   24 ar
    45   21   23 ar
    46   21   24 ar
    47   21   25 ar
    48   22   23 ar
    49   22   54 1
    50   24   55 1
    51   25   26 ar
    52   26   27 ar
    53   26   33 1
    54   27   57 1
    55   28   29 ar
    56   28   31 ar
    57   29   32 ar
    58   29   58 1
    59   30   59 1
    60   30   60 1
    61   30   61 1
    62   31   34 ar
    63   32   35 ar
    64   34   35 ar
    65   34   62 1
    66   36   63 1
    67   36   64 1
    68   36   65 1
