@<TRIPOS>MOLECULE
10302451
   70    75     0     0     0
SMALL
NO_CHARGES

@<TRIPOS>ATOM
      1 Cl1         7.8280   -8.6780  -10.9970 Cl        1 UNK         0.0000
      2 O1          7.4040   -5.4350  -10.2980 O.3       1 UNK         0.0000
      3 O2         11.3520   -4.2920  -10.8210 O.3       1 UNK         0.0000
      4 O3          6.5390   -5.0980   -5.6380 O.3       1 UNK         0.0000
      5 O4          4.2780   -6.8850  -14.3850 O.3       1 UNK         0.0000
      6 O5          4.6160   -8.5410  -15.8930 O.3       1 UNK         0.0000
      7 N1          6.5490   -3.8270   -3.0010 N.3       1 UNK         0.0000
      8 N2          5.8870   -1.4420   -1.5920 N.3       1 UNK         0.0000
      9 N3          5.7700   -6.6840  -11.7850 N.pl3     1 UNK         0.0000
     10 N4          3.4890   -7.4350   -8.4500 N.ar      1 UNK         0.0000
     11 N5          3.8850   -7.6150  -10.7240 N.ar      1 UNK         0.0000
     12 C1          7.2340   -3.4810   -1.7480 C.3       1 UNK         0.0000
     13 C2          5.1730   -3.3090   -3.0060 C.3       1 UNK         0.0000
     14 C3          7.2630   -1.9600   -1.5870 C.3       1 UNK         0.0000
     15 C4          5.2020   -1.7880   -2.8460 C.3       1 UNK         0.0000
     16 C5          6.5660   -5.2780   -3.2280 C.3       1 UNK         0.0000
     17 C6          8.6640   -4.8140  -10.0350 C.3       1 UNK         0.0000
     18 C7          9.7560   -5.8850   -9.9530 C.3       1 UNK         0.0000
     19 C8          9.0020   -3.8400  -11.1680 C.3       1 UNK         0.0000
     20 C9          5.8080   -5.6010   -4.5170 C.3       1 UNK         0.0000
     21 C10         5.8690    0.0080   -1.3640 C.3       1 UNK         0.0000
     22 C11        11.1130   -5.2050   -9.7490 C.3       1 UNK         0.0000
     23 C12        10.3890   -3.2400  -10.9170 C.3       1 UNK         0.0000
     24 C13         6.6170   -5.7090   -9.2270 C.ar      1 UNK         0.0000
     25 C14         6.1690   -5.5450   -6.8660 C.ar      1 UNK         0.0000
     26 C15         5.4320   -6.4460   -9.3920 C.ar      1 UNK         0.0000
     27 C16         6.9720   -5.2660   -7.9720 C.ar      1 UNK         0.0000
     28 C17         4.6160   -6.7280   -8.2680 C.ar      1 UNK         0.0000
     29 C18         5.0030   -6.2720   -7.0030 C.ar      1 UNK         0.0000
     30 C19         5.0170   -6.9250  -10.6540 C.ar      1 UNK         0.0000
     31 C20         5.9750   -7.7050  -12.7220 C.ar      1 UNK         0.0000
     32 C21         3.1540   -7.8550   -9.6480 C.ar      1 UNK         0.0000
     33 C22         5.2370   -7.7270  -13.9010 C.ar      1 UNK         0.0000
     34 C23         5.4490   -8.7410  -14.8290 C.ar      1 UNK         0.0000
     35 C24         6.9120   -8.7000  -12.4710 C.ar      1 UNK         0.0000
     36 C25         6.3870   -9.7310  -14.5710 C.ar      1 UNK         0.0000
     37 C26         7.1140   -9.7080  -13.3960 C.ar      1 UNK         0.0000
     38 C27         4.1900   -7.1680  -15.7940 C.3       1 UNK         0.0000
     39 H1          8.2540   -3.8640   -1.7740 H         1 UNK         0.0000
     40 H2          6.7000   -3.9250   -0.9070 H         1 UNK         0.0000
     41 H3          4.6160   -3.7520   -2.1800 H         1 UNK         0.0000
     42 H4          4.6910   -3.5660   -3.9490 H         1 UNK         0.0000
     43 H5          7.8200   -1.5170   -2.4140 H         1 UNK         0.0000
     44 H6          7.7450   -1.7020   -0.6440 H         1 UNK         0.0000
     45 H7          4.1810   -1.4050   -2.8190 H         1 UNK         0.0000
     46 H8          5.7360   -1.3430   -3.6860 H         1 UNK         0.0000
     47 H9          7.5980   -5.6190   -3.3190 H         1 UNK         0.0000
     48 H10         6.0880   -5.7820   -2.3900 H         1 UNK         0.0000
     49 H11         8.6140   -4.2710   -9.0900 H         1 UNK         0.0000
     50 H12         9.5520   -6.5500   -9.1130 H         1 UNK         0.0000
     51 H13         9.7720   -6.4600  -10.8780 H         1 UNK         0.0000
     52 H14         9.0040   -4.3750  -12.1180 H         1 UNK         0.0000
     53 H15         8.2600   -3.0440  -11.1970 H         1 UNK         0.0000
     54 H16         5.6960   -6.6800   -4.6120 H         1 UNK         0.0000
     55 H17         4.8240   -5.1350   -4.4870 H         1 UNK         0.0000
     56 H18         5.9000    0.2090   -0.2940 H         1 UNK         0.0000
     57 H19         6.7370    0.4620   -1.8430 H         1 UNK         0.0000
     58 H20         4.9580    0.4320   -1.7890 H         1 UNK         0.0000
     59 H21        11.1100   -4.6630   -8.8030 H         1 UNK         0.0000
     60 H22        11.8990   -5.9600   -9.7330 H         1 UNK         0.0000
     61 H23        10.3750   -2.6730   -9.9870 H         1 UNK         0.0000
     62 H24        10.6530   -2.5790  -11.7430 H         1 UNK         0.0000
     63 H25         7.8820   -4.6990   -7.8430 H         1 UNK         0.0000
     64 H26         4.3910   -6.4840   -6.1390 H         1 UNK         0.0000
     65 H27         6.1590   -5.8070  -11.9300 H         1 UNK         0.0000
     66 H28         2.2400   -8.4200   -9.7590 H         1 UNK         0.0000
     67 H29         6.5470  -10.5200  -15.2890 H         1 UNK         0.0000
     68 H30         7.8430  -10.4800  -13.1990 H         1 UNK         0.0000
     69 H31         4.8600   -6.5190  -16.3580 H         1 UNK         0.0000
     70 H32         3.1650   -7.0600  -16.1460 H         1 UNK         0.0000
@<TRIPOS>BOND
     1    1   35 1
     2    2   17 1
     3    2   24 1
     4    3   22 1
     5    3   23 1
     6    4   20 1
     7    4   25 1
     8    5   33 1
     9    5   38 1
    10    6   34 1
    11    6   38 1
    12    7   12 1
    13    7   13 1
    14    7   16 1
    15    8   14 1
    16    8   15 1
    17    8   21 1
    18    9   30 1
    19    9   31 1
    20    9   65 1
    21   10   28 ar
    22   10   32 ar
    23   11   30 ar
    24   11   32 ar
    25   12   14 1
    26   12   39 1
    27   12   40 1
    28   13   15 1
    29   13   41 1
    30   13   42 1
    31   14   43 1
    32   14   44 1
    33   15   45 1
    34   15   46 1
    35   16   20 1
    36   16   47 1
    37   16   48 1
    38   17   18 1
    39   17   19 1
    40   17   49 1
    41   18   22 1
    42   18   50 1
    43   18   51 1
    44   19   23 1
    45   19   52 1
    46   19   53 1
    47   20   54 1
    48   20   55 1
    49   21   56 1
    50   21   57 1
    51   21   58 1
    52   22   59 1
    53   22   60 1
    54   23   61 1
    55   23   62 1
    56   24   26 ar
    57   24   27 ar
    58   25   27 ar
    59   25   29 ar
    60   26   28 ar
    61   26   30 ar
    62   27   63 1
    63   28   29 ar
    64   29   64 1
    65   31   33 ar
    66   31   35 ar
    67   32   66 1
    68   33   34 ar
    69   34   36 ar
    70   35   37 ar
    71   36   37 ar
    72   36   67 1
    73   37   68 1
    74   38   69 1
    75   38   70 1
