@<TRIPOS>MOLECULE
10302451
   70    75     0     0     0
SMALL
NO_CHARGES

@<TRIPOS>ATOM
      1 Cl1         5.5770   -9.5090  -10.0040 Cl        1 UNK         0.0000
      2 O1          3.2820   -7.4880   -8.6670 O.3       1 UNK         0.0000
      3 O2          0.7130  -10.4700   -7.3740 O.3       1 UNK         0.0000
      4 O3          5.2610   -5.7780   -4.6990 O.3       1 UNK         0.0000
      5 O4          3.9490   -6.3430  -13.8280 O.3       1 UNK         0.0000
      6 O5          4.5610   -7.7470  -15.4960 O.3       1 UNK         0.0000
      7 N1          6.3050   -3.1960   -2.3330 N.3       1 UNK         0.0000
      8 N2          6.4150   -0.5420   -1.3080 N.3       1 UNK         0.0000
      9 N3          4.3390   -6.9650  -10.9150 N.pl3     1 UNK         0.0000
     10 N4          7.2220   -4.8140   -8.9290 N.ar      1 UNK         0.0000
     11 N5          6.2800   -5.6320  -10.8790 N.ar      1 UNK         0.0000
     12 C1          5.4250   -2.1480   -2.8680 C.3       1 UNK         0.0000
     13 C2          7.5750   -2.6250   -1.8640 C.3       1 UNK         0.0000
     14 C3          5.1450   -1.1140   -1.7760 C.3       1 UNK         0.0000
     15 C4          7.2950   -1.5910   -0.7720 C.3       1 UNK         0.0000
     16 C5          6.5370   -4.2490   -3.3310 C.3       1 UNK         0.0000
     17 C6          2.8260   -8.6620   -7.9910 C.3       1 UNK         0.0000
     18 C7          1.6980   -8.2910   -7.0240 C.3       1 UNK         0.0000
     19 C8          2.2960   -9.6690   -9.0160 C.3       1 UNK         0.0000
     20 C9          5.2690   -4.4540   -4.1610 C.3       1 UNK         0.0000
     21 C10         6.1830    0.5100   -0.3100 C.3       1 UNK         0.0000
     22 C11         1.1620   -9.5640   -6.3640 C.3       1 UNK         0.0000
     23 C12         1.7370  -10.8900   -8.2780 C.3       1 UNK         0.0000
     24 C13         4.2570   -6.7660   -8.0570 C.ar      1 UNK         0.0000
     25 C14         5.2680   -5.8940   -6.0520 C.ar      1 UNK         0.0000
     26 C15         5.2610   -6.1480   -8.8220 C.ar      1 UNK         0.0000
     27 C16         4.2710   -6.6350   -6.6860 C.ar      1 UNK         0.0000
     28 C17         6.2740   -5.3960   -8.1770 C.ar      1 UNK         0.0000
     29 C18         6.2610   -5.2740   -6.7830 C.ar      1 UNK         0.0000
     30 C19         5.2980   -6.2480  -10.2300 C.ar      1 UNK         0.0000
     31 C20         4.7160   -7.8290  -11.9510 C.ar      1 UNK         0.0000
     32 C21         7.2070   -4.9410  -10.2350 C.ar      1 UNK         0.0000
     33 C22         4.4950   -7.4660  -13.2760 C.ar      1 UNK         0.0000
     34 C23         4.8760   -8.3260  -14.3000 C.ar      1 UNK         0.0000
     35 C24         5.3060   -9.0520  -11.6560 C.ar      1 UNK         0.0000
     36 C25         5.4660   -9.5450  -13.9970 C.ar      1 UNK         0.0000
     37 C26         5.6790   -9.9040  -12.6800 C.ar      1 UNK         0.0000
     38 C27         4.3630   -6.3500  -15.2070 C.3       1 UNK         0.0000
     39 H1          4.4860   -2.5940   -3.1970 H         1 UNK         0.0000
     40 H2          5.9120   -1.6610   -3.7140 H         1 UNK         0.0000
     41 H3          8.0870   -2.1450   -2.6980 H         1 UNK         0.0000
     42 H4          8.2040   -3.4190   -1.4600 H         1 UNK         0.0000
     43 H5          4.6330   -1.5950   -0.9420 H         1 UNK         0.0000
     44 H6          4.5160   -0.3200   -2.1800 H         1 UNK         0.0000
     45 H7          8.2340   -1.1450   -0.4430 H         1 UNK         0.0000
     46 H8          6.8070   -2.0780    0.0740 H         1 UNK         0.0000
     47 H9          7.3560   -3.9530   -3.9870 H         1 UNK         0.0000
     48 H10         6.7950   -5.1790   -2.8250 H         1 UNK         0.0000
     49 H11         3.6520   -9.1070   -7.4340 H         1 UNK         0.0000
     50 H12         2.0810   -7.6170   -6.2580 H         1 UNK         0.0000
     51 H13         0.8940   -7.8000   -7.5730 H         1 UNK         0.0000
     52 H14         1.5040   -9.2060   -9.6050 H         1 UNK         0.0000
     53 H15         3.1070   -9.9810   -9.6730 H         1 UNK         0.0000
     54 H16         4.3940   -4.3140   -3.5280 H         1 UNK         0.0000
     55 H17         5.2470   -3.7310   -4.9760 H         1 UNK         0.0000
     56 H18         5.9910    0.0550    0.6600 H         1 UNK         0.0000
     57 H19         7.0650    1.1480   -0.2440 H         1 UNK         0.0000
     58 H20         5.3230    1.1100   -0.6080 H         1 UNK         0.0000
     59 H21         1.9560  -10.0330   -5.7810 H         1 UNK         0.0000
     60 H22         0.3300   -9.3110   -5.7070 H         1 UNK         0.0000
     61 H23         2.5380  -11.3750   -7.7210 H         1 UNK         0.0000
     62 H24         1.3190  -11.5910   -9.0010 H         1 UNK         0.0000
     63 H25         3.5000   -7.1100   -6.0960 H         1 UNK         0.0000
     64 H26         7.0260   -4.7000   -6.2820 H         1 UNK         0.0000
     65 H27         3.4020   -6.8700  -10.6790 H         1 UNK         0.0000
     66 H28         7.9840   -4.4610  -10.8100 H         1 UNK         0.0000
     67 H29         5.7570  -10.2140  -14.7920 H         1 UNK         0.0000
     68 H30         6.1380  -10.8540  -12.4490 H         1 UNK         0.0000
     69 H31         5.2950   -5.7980  -15.3290 H         1 UNK         0.0000
     70 H32         3.5850   -5.9330  -15.8450 H         1 UNK         0.0000
@<TRIPOS>BOND
     1    1   35 1
     2    2   17 1
     3    2   24 1
     4    3   22 1
     5    3   23 1
     6    4   20 1
     7    4   25 1
     8    5   33 1
     9    5   38 1
    10    6   34 1
    11    6   38 1
    12    7   12 1
    13    7   13 1
    14    7   16 1
    15    8   14 1
    16    8   15 1
    17    8   21 1
    18    9   30 1
    19    9   31 1
    20    9   65 1
    21   10   28 ar
    22   10   32 ar
    23   11   30 ar
    24   11   32 ar
    25   12   14 1
    26   12   39 1
    27   12   40 1
    28   13   15 1
    29   13   41 1
    30   13   42 1
    31   14   43 1
    32   14   44 1
    33   15   45 1
    34   15   46 1
    35   16   20 1
    36   16   47 1
    37   16   48 1
    38   17   18 1
    39   17   19 1
    40   17   49 1
    41   18   22 1
    42   18   50 1
    43   18   51 1
    44   19   23 1
    45   19   52 1
    46   19   53 1
    47   20   54 1
    48   20   55 1
    49   21   56 1
    50   21   57 1
    51   21   58 1
    52   22   59 1
    53   22   60 1
    54   23   61 1
    55   23   62 1
    56   24   26 ar
    57   24   27 ar
    58   25   27 ar
    59   25   29 ar
    60   26   28 ar
    61   26   30 ar
    62   27   63 1
    63   28   29 ar
    64   29   64 1
    65   31   33 ar
    66   31   35 ar
    67   32   66 1
    68   33   34 ar
    69   34   36 ar
    70   35   37 ar
    71   36   37 ar
    72   36   67 1
    73   37   68 1
    74   38   69 1
    75   38   70 1
