@<TRIPOS>MOLECULE
10302451
   70    75     0     0     0
SMALL
NO_CHARGES

@<TRIPOS>ATOM
      1 Cl1         9.4190   -6.7090   -9.2270 Cl        1 UNK         0.0000
      2 O1          6.6060   -4.8370   -8.5280 O.3       1 UNK         0.0000
      3 O2          6.0150   -4.5310   -4.4400 O.3       1 UNK         0.0000
      4 O3          3.0060   -7.4510  -10.2000 O.3       1 UNK         0.0000
      5 O4         10.2940   -1.8000  -10.7880 O.3       1 UNK         0.0000
      6 O5         12.5490   -1.9720  -10.6630 O.3       1 UNK         0.0000
      7 N1          2.8130   -8.9020   -8.0270 N.3       1 UNK         0.0000
      8 N2          2.2050   -8.5430   -5.2680 N.3       1 UNK         0.0000
      9 N3          8.4240   -4.0540  -10.1170 N.pl3     1 UNK         0.0000
     10 N4          6.4290   -5.9660  -13.1580 N.ar      1 UNK         0.0000
     11 N5          8.1950   -4.6930  -12.3730 N.ar      1 UNK         0.0000
     12 C1          3.8710   -8.5730   -7.0620 C.3       1 UNK         0.0000
     13 C2          1.7430   -9.6800   -7.3860 C.3       1 UNK         0.0000
     14 C3          3.2740   -7.7640   -5.9090 C.3       1 UNK         0.0000
     15 C4          1.1460   -8.8710   -6.2330 C.3       1 UNK         0.0000
     16 C5          3.3600   -9.6160   -9.1870 C.3       1 UNK         0.0000
     17 C6          6.1490   -5.1620   -7.2140 C.3       1 UNK         0.0000
     18 C7          7.3510   -5.3410   -6.2830 C.3       1 UNK         0.0000
     19 C8          5.2690   -4.0260   -6.6830 C.3       1 UNK         0.0000
     20 C9          3.0100   -8.8540  -10.4670 C.3       1 UNK         0.0000
     21 C10         1.6570   -7.8290   -4.1080 C.3       1 UNK         0.0000
     22 C11         6.8500   -5.6100   -4.8610 C.3       1 UNK         0.0000
     23 C12         4.8490   -4.3460   -5.2450 C.3       1 UNK         0.0000
     24 C13         5.9850   -5.4530   -9.5660 C.ar      1 UNK         0.0000
     25 C14         4.1650   -6.7770  -10.4240 C.ar      1 UNK         0.0000
     26 C15         6.5370   -5.3920  -10.8570 C.ar      1 UNK         0.0000
     27 C16         4.8090   -6.1410   -9.3630 C.ar      1 UNK         0.0000
     28 C17         5.8810   -6.0380  -11.9350 C.ar      1 UNK         0.0000
     29 C18         4.6910   -6.7350  -11.7000 C.ar      1 UNK         0.0000
     30 C19         7.7390   -4.7010  -11.1250 C.ar      1 UNK         0.0000
     31 C20         9.8190   -4.1530  -10.0420 C.ar      1 UNK         0.0000
     32 C21         7.5490   -5.3090  -13.3490 C.ar      1 UNK         0.0000
     33 C22        10.6150   -3.0610  -10.3750 C.ar      1 UNK         0.0000
     34 C23        11.9980   -3.1650  -10.2930 C.ar      1 UNK         0.0000
     35 C24        10.4100   -5.3440   -9.6380 C.ar      1 UNK         0.0000
     36 C25        12.5800   -4.3580   -9.8880 C.ar      1 UNK         0.0000
     37 C26        11.7870   -5.4420   -9.5620 C.ar      1 UNK         0.0000
     38 C27        11.4790   -1.0110  -10.5740 C.3       1 UNK         0.0000
     39 H1          4.6450   -7.9860   -7.5570 H         1 UNK         0.0000
     40 H2          4.3070   -9.4940   -6.6730 H         1 UNK         0.0000
     41 H3          2.1540  -10.6140   -7.0010 H         1 UNK         0.0000
     42 H4          0.9650   -9.9000   -8.1170 H         1 UNK         0.0000
     43 H5          2.8630   -6.8300   -6.2950 H         1 UNK         0.0000
     44 H6          4.0520   -7.5440   -5.1770 H         1 UNK         0.0000
     45 H7          0.3720   -9.4580   -5.7380 H         1 UNK         0.0000
     46 H8          0.7100   -7.9500   -6.6220 H         1 UNK         0.0000
     47 H9          4.4440   -9.6860   -9.0920 H         1 UNK         0.0000
     48 H10         2.9340  -10.6170   -9.2320 H         1 UNK         0.0000
     49 H11         5.5710   -6.0870   -7.2460 H         1 UNK         0.0000
     50 H12         7.9530   -6.1840   -6.6220 H         1 UNK         0.0000
     51 H13         7.9560   -4.4350   -6.2900 H         1 UNK         0.0000
     52 H14         5.8330   -3.0930   -6.6980 H         1 UNK         0.0000
     53 H15         4.3830   -3.9290   -7.3080 H         1 UNK         0.0000
     54 H16         3.7490   -9.0760  -11.2360 H         1 UNK         0.0000
     55 H17         2.0230   -9.1610  -10.8130 H         1 UNK         0.0000
     56 H18         1.8130   -6.7580   -4.2320 H         1 UNK         0.0000
     57 H19         0.5890   -8.0330   -4.0280 H         1 UNK         0.0000
     58 H20         2.1590   -8.1680   -3.2010 H         1 UNK         0.0000
     59 H21         6.2790   -6.5400   -4.8460 H         1 UNK         0.0000
     60 H22         7.7010   -5.6970   -4.1850 H         1 UNK         0.0000
     61 H23         4.2520   -5.2580   -5.2370 H         1 UNK         0.0000
     62 H24         4.2580   -3.5210   -4.8470 H         1 UNK         0.0000
     63 H25         4.3820   -6.1890   -8.3720 H         1 UNK         0.0000
     64 H26         4.1860   -7.2350  -12.5120 H         1 UNK         0.0000
     65 H27         7.9380   -3.5310   -9.4600 H         1 UNK         0.0000
     66 H28         7.9620   -5.2710  -14.3460 H         1 UNK         0.0000
     67 H29        13.6550   -4.4400   -9.8290 H         1 UNK         0.0000
     68 H30        12.2440   -6.3680   -9.2480 H         1 UNK         0.0000
     69 H31        11.4600   -0.5510   -9.5860 H         1 UNK         0.0000
     70 H32        11.5810   -0.2510  -11.3480 H         1 UNK         0.0000
@<TRIPOS>BOND
     1    1   35 1
     2    2   17 1
     3    2   24 1
     4    3   22 1
     5    3   23 1
     6    4   20 1
     7    4   25 1
     8    5   33 1
     9    5   38 1
    10    6   34 1
    11    6   38 1
    12    7   12 1
    13    7   13 1
    14    7   16 1
    15    8   14 1
    16    8   15 1
    17    8   21 1
    18    9   30 1
    19    9   31 1
    20    9   65 1
    21   10   28 ar
    22   10   32 ar
    23   11   30 ar
    24   11   32 ar
    25   12   14 1
    26   12   39 1
    27   12   40 1
    28   13   15 1
    29   13   41 1
    30   13   42 1
    31   14   43 1
    32   14   44 1
    33   15   45 1
    34   15   46 1
    35   16   20 1
    36   16   47 1
    37   16   48 1
    38   17   18 1
    39   17   19 1
    40   17   49 1
    41   18   22 1
    42   18   50 1
    43   18   51 1
    44   19   23 1
    45   19   52 1
    46   19   53 1
    47   20   54 1
    48   20   55 1
    49   21   56 1
    50   21   57 1
    51   21   58 1
    52   22   59 1
    53   22   60 1
    54   23   61 1
    55   23   62 1
    56   24   26 ar
    57   24   27 ar
    58   25   27 ar
    59   25   29 ar
    60   26   28 ar
    61   26   30 ar
    62   27   63 1
    63   28   29 ar
    64   29   64 1
    65   31   33 ar
    66   31   35 ar
    67   32   66 1
    68   33   34 ar
    69   34   36 ar
    70   35   37 ar
    71   36   37 ar
    72   36   67 1
    73   37   68 1
    74   38   69 1
    75   38   70 1
