@<TRIPOS>MOLECULE
5328940
   65    68     0     0     0
SMALL
NO_CHARGES

@<TRIPOS>ATOM
      1 Cl1         2.4310  -24.2460    4.3490 Cl        1 UNK         0.0000
      2 Cl2        -1.9620  -26.8010    2.5200 Cl        1 UNK         0.0000
      3 O1          6.0800  -25.0890   -4.1660 O.3       1 UNK         0.0000
      4 O2          4.2420  -23.3880   -3.0360 O.3       1 UNK         0.0000
      5 O3         -0.3080  -27.2460    0.1140 O.3       1 UNK         0.0000
      6 N1          8.5020  -23.7050   -2.0110 N.3       1 UNK         0.0000
      7 N2          8.7940  -24.2290    0.7730 N.3       1 UNK         0.0000
      8 N3          3.5970  -24.9750    1.7120 N.pl3     1 UNK         0.0000
      9 N4          6.3780  -27.4940   -0.0830 N.ar      1 UNK         0.0000
     10 N5          4.4610  -27.3160    4.2610 N.1       1 UNK         0.0000
     11 C1          8.0600  -22.7220   -1.0120 C.3       1 UNK         0.0000
     12 C2          9.6440  -24.4830   -1.5090 C.3       1 UNK         0.0000
     13 C3          7.6530  -23.4500    0.2710 C.3       1 UNK         0.0000
     14 C4          9.2370  -25.2110   -0.2260 C.3       1 UNK         0.0000
     15 C5          8.8290  -23.0500   -3.2840 C.3       1 UNK         0.0000
     16 C6          7.7100  -23.3100   -4.2940 C.3       1 UNK         0.0000
     17 C7          8.4670  -24.8820    2.0460 C.3       1 UNK         0.0000
     18 C8          7.4620  -24.8140   -4.4060 C.3       1 UNK         0.0000
     19 C9          5.7020  -25.2700   -2.8740 C.ar      1 UNK         0.0000
     20 C10         4.7650  -24.4030   -2.2960 C.ar      1 UNK         0.0000
     21 C11         4.9080  -25.6140   -0.2350 C.ar      1 UNK         0.0000
     22 C12         6.2440  -26.3050   -2.1450 C.ar      1 UNK         0.0000
     23 C13         5.8550  -26.4950   -0.8100 C.ar      1 UNK         0.0000
     24 C14         4.3700  -24.5670   -1.0000 C.ar      1 UNK         0.0000
     25 C15         4.5180  -25.8080    1.1100 C.ar      1 UNK         0.0000
     26 C16         5.0980  -26.8750    1.8120 C.ar      1 UNK         0.0000
     27 C17         6.0310  -27.7000    1.1620 C.ar      1 UNK         0.0000
     28 C18         2.2810  -25.4080    1.9010 C.ar      1 UNK         0.0000
     29 C19         1.6340  -26.1210    0.9020 C.ar      1 UNK         0.0000
     30 C20         2.8460  -23.4560   -3.3340 C.3       1 UNK         0.0000
     31 C21         1.6210  -25.1310    3.0940 C.ar      1 UNK         0.0000
     32 C22         0.3290  -26.5490    1.0920 C.ar      1 UNK         0.0000
     33 C23         4.7430  -27.1210    3.1770 C.1       1 UNK         0.0000
     34 C24         0.3180  -25.5550    3.2780 C.ar      1 UNK         0.0000
     35 C25        -0.3270  -26.2650    2.2820 C.ar      1 UNK         0.0000
     36 C26         0.4290  -27.5050   -1.0830 C.3       1 UNK         0.0000
     37 H1          8.8740  -22.0310   -0.7960 H         1 UNK         0.0000
     38 H2          7.2060  -22.1670   -1.4010 H         1 UNK         0.0000
     39 H3          9.9440  -25.2120   -2.2620 H         1 UNK         0.0000
     40 H4         10.4760  -23.8130   -1.2990 H         1 UNK         0.0000
     41 H5          6.8200  -24.1210    0.0610 H         1 UNK         0.0000
     42 H6          7.3520  -22.7210    1.0240 H         1 UNK         0.0000
     43 H7          8.4220  -25.9020   -0.4420 H         1 UNK         0.0000
     44 H8         10.0910  -25.7660    0.1630 H         1 UNK         0.0000
     45 H9          9.7660  -23.4530   -3.6680 H         1 UNK         0.0000
     46 H10         8.9330  -21.9770   -3.1250 H         1 UNK         0.0000
     47 H11         8.0020  -22.9160   -5.2680 H         1 UNK         0.0000
     48 H12         6.7980  -22.8140   -3.9610 H         1 UNK         0.0000
     49 H13         8.2470  -24.1250    2.7980 H         1 UNK         0.0000
     50 H14         7.5980  -25.5250    1.9120 H         1 UNK         0.0000
     51 H15         9.3160  -25.4830    2.3740 H         1 UNK         0.0000
     52 H16         8.0700  -25.3390   -3.6690 H         1 UNK         0.0000
     53 H17         7.7300  -25.1540   -5.4070 H         1 UNK         0.0000
     54 H18         6.9660  -26.9670   -2.5990 H         1 UNK         0.0000
     55 H19         3.6470  -23.8940   -0.5640 H         1 UNK         0.0000
     56 H20         3.8620  -24.0890    2.0050 H         1 UNK         0.0000
     57 H21         6.4760  -28.5200    1.7040 H         1 UNK         0.0000
     58 H22         2.1450  -26.3410   -0.0240 H         1 UNK         0.0000
     59 H23         2.6630  -24.2680   -4.0370 H         1 UNK         0.0000
     60 H24         2.2870  -23.6370   -2.4160 H         1 UNK         0.0000
     61 H25         2.5230  -22.5130   -3.7760 H         1 UNK         0.0000
     62 H26        -0.1940  -25.3350    4.2040 H         1 UNK         0.0000
     63 H27        -0.2640  -27.7000   -1.9010 H         1 UNK         0.0000
     64 H28         1.0440  -26.6380   -1.3260 H         1 UNK         0.0000
     65 H29         1.0690  -28.3750   -0.9340 H         1 UNK         0.0000
@<TRIPOS>BOND
     1    1   31 1
     2    2   35 1
     3    3   18 1
     4    3   19 1
     5    4   20 1
     6    4   30 1
     7    5   32 1
     8    5   36 1
     9    6   11 1
    10    6   12 1
    11    6   15 1
    12    7   13 1
    13    7   14 1
    14    7   17 1
    15    8   25 1
    16    8   28 1
    17    8   56 1
    18    9   23 ar
    19    9   27 ar
    20   10   33 3
    21   11   13 1
    22   11   37 1
    23   11   38 1
    24   12   14 1
    25   12   39 1
    26   12   40 1
    27   13   41 1
    28   13   42 1
    29   14   43 1
    30   14   44 1
    31   15   16 1
    32   15   45 1
    33   15   46 1
    34   16   18 1
    35   16   47 1
    36   16   48 1
    37   17   49 1
    38   17   50 1
    39   17   51 1
    40   18   52 1
    41   18   53 1
    42   19   20 ar
    43   19   22 ar
    44   20   24 ar
    45   21   23 ar
    46   21   24 ar
    47   21   25 ar
    48   22   23 ar
    49   22   54 1
    50   24   55 1
    51   25   26 ar
    52   26   27 ar
    53   26   33 1
    54   27   57 1
    55   28   29 ar
    56   28   31 ar
    57   29   32 ar
    58   29   58 1
    59   30   59 1
    60   30   60 1
    61   30   61 1
    62   31   34 ar
    63   32   35 ar
    64   34   35 ar
    65   34   62 1
    66   36   63 1
    67   36   64 1
    68   36   65 1
