@<TRIPOS>MOLECULE
5328940
   65    68     0     0     0
SMALL
NO_CHARGES

@<TRIPOS>ATOM
      1 Cl1         2.1650  -22.9650   -1.4620 Cl        1 UNK         0.0000
      2 Cl2         4.7890  -23.1520   -6.1790 Cl        1 UNK         0.0000
      3 O1          2.5410  -30.0890   -0.2870 O.3       1 UNK         0.0000
      4 O2          1.4410  -27.8100   -1.3580 O.3       1 UNK         0.0000
      5 O3          6.9910  -24.2450   -4.5440 O.3       1 UNK         0.0000
      6 N1          5.8520  -30.1970   -3.0060 N.3       1 UNK         0.0000
      7 N2          7.2320  -27.8500   -2.1710 N.3       1 UNK         0.0000
      8 N3          4.6860  -24.0790   -0.3470 N.pl3     1 UNK         0.0000
      9 N4          6.2750  -27.5820    1.2350 N.ar      1 UNK         0.0000
     10 N5          7.7720  -23.0750    1.1340 N.1       1 UNK         0.0000
     11 C1          6.7490  -30.2280   -1.8410 C.3       1 UNK         0.0000
     12 C2          5.2370  -28.8710   -3.1570 C.3       1 UNK         0.0000
     13 C3          7.8470  -29.1770   -2.0180 C.3       1 UNK         0.0000
     14 C4          6.3350  -27.8200   -3.3340 C.3       1 UNK         0.0000
     15 C5          4.8280  -31.2450   -2.9080 C.3       1 UNK         0.0000
     16 C6          3.5110  -30.6300   -2.4340 C.3       1 UNK         0.0000
     17 C7          8.2550  -26.8030   -2.2670 C.3       1 UNK         0.0000
     18 C8          3.1940  -31.1260   -1.0220 C.3       1 UNK         0.0000
     19 C9          3.1990  -28.9060   -0.1700 C.ar      1 UNK         0.0000
     20 C10         2.6380  -27.7430   -0.7160 C.ar      1 UNK         0.0000
     21 C11         4.5180  -26.4730    0.0520 C.ar      1 UNK         0.0000
     22 C12         4.4100  -28.8630    0.4840 C.ar      1 UNK         0.0000
     23 C13         5.0910  -27.6420    0.6060 C.ar      1 UNK         0.0000
     24 C14         3.2820  -26.5450   -0.6100 C.ar      1 UNK         0.0000
     25 C15         5.2070  -25.2450    0.1770 C.ar      1 UNK         0.0000
     26 C16         6.4370  -25.2500    0.8510 C.ar      1 UNK         0.0000
     27 C17         6.9320  -26.4590    1.3700 C.ar      1 UNK         0.0000
     28 C18         4.7130  -23.8600   -1.7280 C.ar      1 UNK         0.0000
     29 C19         5.8530  -24.1660   -2.4580 C.ar      1 UNK         0.0000
     30 C20         0.3940  -26.9700   -0.8660 C.3       1 UNK         0.0000
     31 C21         3.5950  -23.3420   -2.3720 C.ar      1 UNK         0.0000
     32 C22         5.8760  -23.9480   -3.8270 C.ar      1 UNK         0.0000
     33 C23         7.1820  -24.0370    1.0100 C.1       1 UNK         0.0000
     34 C24         3.6230  -23.1210   -3.7360 C.ar      1 UNK         0.0000
     35 C25         4.7600  -23.4250   -4.4640 C.ar      1 UNK         0.0000
     36 C26         8.0810  -23.3240   -4.4610 C.3       1 UNK         0.0000
     37 H1          6.1790  -30.0110   -0.9370 H         1 UNK         0.0000
     38 H2          7.2020  -31.2160   -1.7570 H         1 UNK         0.0000
     39 H3          4.5880  -28.8710   -4.0340 H         1 UNK         0.0000
     40 H4          4.6510  -28.6390   -2.2700 H         1 UNK         0.0000
     41 H5          8.4330  -29.4090   -2.9070 H         1 UNK         0.0000
     42 H6          8.4960  -29.1770   -1.1430 H         1 UNK         0.0000
     43 H7          6.9050  -28.0370   -4.2380 H         1 UNK         0.0000
     44 H8          5.8820  -26.8330   -3.4190 H         1 UNK         0.0000
     45 H9          5.1520  -32.0040   -2.1960 H         1 UNK         0.0000
     46 H10         4.6830  -31.7040   -3.8860 H         1 UNK         0.0000
     47 H11         2.7080  -30.9240   -3.1100 H         1 UNK         0.0000
     48 H12         3.5990  -29.5430   -2.4260 H         1 UNK         0.0000
     49 H13         7.9310  -26.0410   -2.9760 H         1 UNK         0.0000
     50 H14         8.4040  -26.3480   -1.2880 H         1 UNK         0.0000
     51 H15         9.1930  -27.2420   -2.6100 H         1 UNK         0.0000
     52 H16         4.1200  -31.4010   -0.5170 H         1 UNK         0.0000
     53 H17         2.5400  -31.9960   -1.0810 H         1 UNK         0.0000
     54 H18         4.8320  -29.7650    0.9010 H         1 UNK         0.0000
     55 H19         2.8430  -25.6530   -1.0330 H         1 UNK         0.0000
     56 H20         4.3020  -23.4110    0.2430 H         1 UNK         0.0000
     57 H21         7.8780  -26.4610    1.8890 H         1 UNK         0.0000
     58 H22         6.7210  -24.5730   -1.9600 H         1 UNK         0.0000
     59 H23        -0.5620  -27.3100   -1.2620 H         1 UNK         0.0000
     60 H24         0.3740  -27.0160    0.2230 H         1 UNK         0.0000
     61 H25         0.5750  -25.9430   -1.1830 H         1 UNK         0.0000
     62 H26         2.7550  -22.7140   -4.2350 H         1 UNK         0.0000
     63 H27         8.4730  -23.1340   -5.4600 H         1 UNK         0.0000
     64 H28         7.7340  -22.3890   -4.0220 H         1 UNK         0.0000
     65 H29         8.8690  -23.7490   -3.8370 H         1 UNK         0.0000
@<TRIPOS>BOND
     1    1   31 1
     2    2   35 1
     3    3   18 1
     4    3   19 1
     5    4   20 1
     6    4   30 1
     7    5   32 1
     8    5   36 1
     9    6   11 1
    10    6   12 1
    11    6   15 1
    12    7   13 1
    13    7   14 1
    14    7   17 1
    15    8   25 1
    16    8   28 1
    17    8   56 1
    18    9   23 ar
    19    9   27 ar
    20   10   33 3
    21   11   13 1
    22   11   37 1
    23   11   38 1
    24   12   14 1
    25   12   39 1
    26   12   40 1
    27   13   41 1
    28   13   42 1
    29   14   43 1
    30   14   44 1
    31   15   16 1
    32   15   45 1
    33   15   46 1
    34   16   18 1
    35   16   47 1
    36   16   48 1
    37   17   49 1
    38   17   50 1
    39   17   51 1
    40   18   52 1
    41   18   53 1
    42   19   20 ar
    43   19   22 ar
    44   20   24 ar
    45   21   23 ar
    46   21   24 ar
    47   21   25 ar
    48   22   23 ar
    49   22   54 1
    50   24   55 1
    51   25   26 ar
    52   26   27 ar
    53   26   33 1
    54   27   57 1
    55   28   29 ar
    56   28   31 ar
    57   29   32 ar
    58   29   58 1
    59   30   59 1
    60   30   60 1
    61   30   61 1
    62   31   34 ar
    63   32   35 ar
    64   34   35 ar
    65   34   62 1
    66   36   63 1
    67   36   64 1
    68   36   65 1
