@<TRIPOS>MOLECULE
5328940
   65    68     0     0     0
SMALL
NO_CHARGES

@<TRIPOS>ATOM
      1 Cl1         6.4850  -25.8800   -5.6550 Cl        1 UNK         0.0000
      2 Cl2         4.4130  -27.6750   -1.0010 Cl        1 UNK         0.0000
      3 O1         11.3670  -22.7390   -1.1190 O.3       1 UNK         0.0000
      4 O2          8.7630  -23.0510   -0.2990 O.3       1 UNK         0.0000
      5 O3          4.1310  -24.8000   -0.3890 O.3       1 UNK         0.0000
      6 N1         10.2640  -26.5100    0.4320 N.3       1 UNK         0.0000
      7 N2          7.5580  -26.1430    1.2370 N.3       1 UNK         0.0000
      8 N3          5.9760  -23.1850   -4.5060 N.pl3     1 UNK         0.0000
      9 N4          9.9480  -22.7210   -5.6490 N.ar      1 UNK         0.0000
     10 N5          5.8730  -23.0590   -8.0690 N.1       1 UNK         0.0000
     11 C1          9.1770  -26.5320   -0.5570 C.3       1 UNK         0.0000
     12 C2          9.9290  -25.6260    1.5570 C.3       1 UNK         0.0000
     13 C3          7.8930  -27.0260    0.1110 C.3       1 UNK         0.0000
     14 C4          8.6450  -26.1200    2.2250 C.3       1 UNK         0.0000
     15 C5         11.5340  -26.1130   -0.1900 C.3       1 UNK         0.0000
     16 C6         11.8800  -24.6820    0.2240 C.3       1 UNK         0.0000
     17 C7          6.2880  -26.5390    1.8590 C.3       1 UNK         0.0000
     18 C8         12.2420  -23.8640   -1.0170 C.3       1 UNK         0.0000
     19 C9         10.3740  -22.8100   -2.0440 C.ar      1 UNK         0.0000
     20 C10         9.0460  -22.9690   -1.6270 C.ar      1 UNK         0.0000
     21 C11         8.3240  -22.9570   -3.9100 C.ar      1 UNK         0.0000
     22 C12        10.6860  -22.7240   -3.3830 C.ar      1 UNK         0.0000
     23 C13         9.6630  -22.7970   -4.3410 C.ar      1 UNK         0.0000
     24 C14         8.0340  -23.0420   -2.5400 C.ar      1 UNK         0.0000
     25 C15         7.2960  -23.0290   -4.8780 C.ar      1 UNK         0.0000
     26 C16         7.6610  -22.9380   -6.2300 C.ar      1 UNK         0.0000
     27 C17         9.0160  -22.7800   -6.5660 C.ar      1 UNK         0.0000
     28 C18         5.6050  -24.2470   -3.6740 C.ar      1 UNK         0.0000
     29 C19         5.0450  -23.9920   -2.4310 C.ar      1 UNK         0.0000
     30 C20         7.3990  -22.8600    0.0860 C.3       1 UNK         0.0000
     31 C21         5.7910  -25.5590   -4.0950 C.ar      1 UNK         0.0000
     32 C22         4.6790  -25.0460   -1.6080 C.ar      1 UNK         0.0000
     33 C23         6.6640  -23.0050   -7.2560 C.1       1 UNK         0.0000
     34 C24         5.4300  -26.6080   -3.2710 C.ar      1 UNK         0.0000
     35 C25         4.8720  -26.3540   -2.0310 C.ar      1 UNK         0.0000
     36 C26         2.7470  -24.4420   -0.3600 C.3       1 UNK         0.0000
     37 H1          9.0210  -25.5270   -0.9490 H         1 UNK         0.0000
     38 H2          9.4430  -27.2030   -1.3740 H         1 UNK         0.0000
     39 H3         10.7440  -25.6370    2.2820 H         1 UNK         0.0000
     40 H4          9.7820  -24.6110    1.1910 H         1 UNK         0.0000
     41 H5          8.0410  -28.0420    0.4780 H         1 UNK         0.0000
     42 H6          7.0780  -27.0160   -0.6130 H         1 UNK         0.0000
     43 H7          8.8010  -27.1250    2.6170 H         1 UNK         0.0000
     44 H8          8.3800  -25.4500    3.0430 H         1 UNK         0.0000
     45 H9         11.4370  -26.1640   -1.2750 H         1 UNK         0.0000
     46 H10        12.3260  -26.7870    0.1360 H         1 UNK         0.0000
     47 H11        12.7290  -24.6970    0.9080 H         1 UNK         0.0000
     48 H12        11.0220  -24.2290    0.7200 H         1 UNK         0.0000
     49 H13         5.4630  -26.2920    1.1910 H         1 UNK         0.0000
     50 H14         6.2940  -27.6130    2.0450 H         1 UNK         0.0000
     51 H15         6.1640  -26.0060    2.8020 H         1 UNK         0.0000
     52 H16        12.1380  -24.4870   -1.9050 H         1 UNK         0.0000
     53 H17        13.2720  -23.5160   -0.9360 H         1 UNK         0.0000
     54 H18        11.7120  -22.6020   -3.6930 H         1 UNK         0.0000
     55 H19         7.0130  -23.1640   -2.2090 H         1 UNK         0.0000
     56 H20         5.3060  -22.5590   -4.8210 H         1 UNK         0.0000
     57 H21         9.2950  -22.7090   -7.6060 H         1 UNK         0.0000
     58 H22         4.8950  -22.9740   -2.1030 H         1 UNK         0.0000
     59 H23         7.3600  -22.3130    1.0270 H         1 UNK         0.0000
     60 H24         6.8810  -22.2920   -0.6870 H         1 UNK         0.0000
     61 H25         6.9180  -23.8300    0.2090 H         1 UNK         0.0000
     62 H26         5.5790  -27.6270   -3.5980 H         1 UNK         0.0000
     63 H27         2.5530  -23.6820   -1.1150 H         1 UNK         0.0000
     64 H28         2.1400  -25.3230   -0.5650 H         1 UNK         0.0000
     65 H29         2.4950  -24.0480    0.6260 H         1 UNK         0.0000
@<TRIPOS>BOND
     1    1   31 1
     2    2   35 1
     3    3   18 1
     4    3   19 1
     5    4   20 1
     6    4   30 1
     7    5   32 1
     8    5   36 1
     9    6   11 1
    10    6   12 1
    11    6   15 1
    12    7   13 1
    13    7   14 1
    14    7   17 1
    15    8   25 1
    16    8   28 1
    17    8   56 1
    18    9   23 ar
    19    9   27 ar
    20   10   33 3
    21   11   13 1
    22   11   37 1
    23   11   38 1
    24   12   14 1
    25   12   39 1
    26   12   40 1
    27   13   41 1
    28   13   42 1
    29   14   43 1
    30   14   44 1
    31   15   16 1
    32   15   45 1
    33   15   46 1
    34   16   18 1
    35   16   47 1
    36   16   48 1
    37   17   49 1
    38   17   50 1
    39   17   51 1
    40   18   52 1
    41   18   53 1
    42   19   20 ar
    43   19   22 ar
    44   20   24 ar
    45   21   23 ar
    46   21   24 ar
    47   21   25 ar
    48   22   23 ar
    49   22   54 1
    50   24   55 1
    51   25   26 ar
    52   26   27 ar
    53   26   33 1
    54   27   57 1
    55   28   29 ar
    56   28   31 ar
    57   29   32 ar
    58   29   58 1
    59   30   59 1
    60   30   60 1
    61   30   61 1
    62   31   34 ar
    63   32   35 ar
    64   34   35 ar
    65   34   62 1
    66   36   63 1
    67   36   64 1
    68   36   65 1
