@<TRIPOS>MOLECULE
5328940
   65    68     0     0     0
SMALL
NO_CHARGES

@<TRIPOS>ATOM
      1 Cl1         1.7570  -23.1560   -3.9180 Cl        1 UNK         0.0000
      2 Cl2         4.2570  -26.3580   -7.4760 Cl        1 UNK         0.0000
      3 O1          9.1900  -24.2460    1.5970 O.3       1 UNK         0.0000
      4 O2          8.7060  -22.7210   -0.6360 O.3       1 UNK         0.0000
      5 O3          6.2170  -26.7120   -5.2950 O.3       1 UNK         0.0000
      6 N1          9.9790  -26.6970   -0.7140 N.3       1 UNK         0.0000
      7 N2          8.5000  -28.9640   -1.5970 N.3       1 UNK         0.0000
      8 N3          4.0210  -23.8660   -2.1270 N.pl3     1 UNK         0.0000
      9 N4          4.8450  -26.1290    1.2650 N.ar      1 UNK         0.0000
     10 N5          1.0540  -25.7680   -1.5770 N.1       1 UNK         0.0000
     11 C1         10.6140  -28.0210   -0.7980 C.3       1 UNK         0.0000
     12 C2          8.9250  -26.5570   -1.7280 C.3       1 UNK         0.0000
     13 C3          9.5560  -29.1050   -0.5830 C.3       1 UNK         0.0000
     14 C4          7.8670  -27.6410   -1.5130 C.3       1 UNK         0.0000
     15 C5         10.9780  -25.6270   -0.8400 C.3       1 UNK         0.0000
     16 C6         11.2260  -24.9950    0.5310 C.3       1 UNK         0.0000
     17 C7          7.5030  -30.0350   -1.4710 C.3       1 UNK         0.0000
     18 C8         10.0790  -25.3580    1.4760 C.3       1 UNK         0.0000
     19 C9          7.9910  -24.3410    0.9650 C.ar      1 UNK         0.0000
     20 C10         7.7430  -23.5630   -0.1740 C.ar      1 UNK         0.0000
     21 C11         5.5510  -24.5120   -0.3490 C.ar      1 UNK         0.0000
     22 C12         7.0320  -25.2010    1.4520 C.ar      1 UNK         0.0000
     23 C13         5.7930  -25.3010    0.8010 C.ar      1 UNK         0.0000
     24 C14         6.5460  -23.6430   -0.8240 C.ar      1 UNK         0.0000
     25 C15         4.3020  -24.6160   -1.0010 C.ar      1 UNK         0.0000
     26 C16         3.3560  -25.5040   -0.4690 C.ar      1 UNK         0.0000
     27 C17         3.6810  -26.2490    0.6770 C.ar      1 UNK         0.0000
     28 C18         4.0790  -24.4570   -3.3930 C.ar      1 UNK         0.0000
     29 C19         5.1310  -25.3010   -3.7180 C.ar      1 UNK         0.0000
     30 C20         8.9470  -22.7240   -2.0460 C.3       1 UNK         0.0000
     31 C21         3.0790  -24.2050   -4.3250 C.ar      1 UNK         0.0000
     32 C22         5.1870  -25.8860   -4.9740 C.ar      1 UNK         0.0000
     33 C23         2.0720  -25.6520   -1.0870 C.1       1 UNK         0.0000
     34 C24         3.1390  -24.7850   -5.5780 C.ar      1 UNK         0.0000
     35 C25         4.1890  -25.6260   -5.9030 C.ar      1 UNK         0.0000
     36 C26         6.1890  -28.0300   -4.7420 C.3       1 UNK         0.0000
     37 H1         11.0680  -28.1440   -1.7820 H         1 UNK         0.0000
     38 H2         11.3820  -28.1040   -0.0300 H         1 UNK         0.0000
     39 H3          8.4630  -25.5740   -1.6370 H         1 UNK         0.0000
     40 H4          9.3590  -26.6640   -2.7210 H         1 UNK         0.0000
     41 H5          9.1210  -28.9970    0.4110 H         1 UNK         0.0000
     42 H6         10.0180  -30.0880   -0.6740 H         1 UNK         0.0000
     43 H7          7.4130  -27.5170   -0.5300 H         1 UNK         0.0000
     44 H8          7.0990  -27.5560   -2.2810 H         1 UNK         0.0000
     45 H9         10.6090  -24.8670   -1.5290 H         1 UNK         0.0000
     46 H10        11.9100  -26.0420   -1.2220 H         1 UNK         0.0000
     47 H11        11.2810  -23.9120    0.4270 H         1 UNK         0.0000
     48 H12        12.1650  -25.3700    0.9400 H         1 UNK         0.0000
     49 H13         7.9970  -30.9580   -1.1700 H         1 UNK         0.0000
     50 H14         6.7640  -29.7570   -0.7210 H         1 UNK         0.0000
     51 H15         7.0090  -30.1840   -2.4320 H         1 UNK         0.0000
     52 H16        10.4820  -25.6100    2.4560 H         1 UNK         0.0000
     53 H17         9.5350  -26.2150    1.0750 H         1 UNK         0.0000
     54 H18         7.2330  -25.7950    2.3300 H         1 UNK         0.0000
     55 H19         6.3630  -23.0400   -1.7010 H         1 UNK         0.0000
     56 H20         3.7830  -22.9300   -2.0390 H         1 UNK         0.0000
     57 H21         2.9530  -26.9320    1.0860 H         1 UNK         0.0000
     58 H22         5.9070  -25.5020   -2.9940 H         1 UNK         0.0000
     59 H23         9.2900  -23.7110   -2.3540 H         1 UNK         0.0000
     60 H24         8.0240  -22.4780   -2.5720 H         1 UNK         0.0000
     61 H25         9.7100  -21.9830   -2.2840 H         1 UNK         0.0000
     62 H26         2.3630  -24.5860   -6.3030 H         1 UNK         0.0000
     63 H27         5.3040  -28.5550   -5.1020 H         1 UNK         0.0000
     64 H28         7.0840  -28.5710   -5.0470 H         1 UNK         0.0000
     65 H29         6.1560  -27.9650   -3.6540 H         1 UNK         0.0000
@<TRIPOS>BOND
     1    1   31 1
     2    2   35 1
     3    3   18 1
     4    3   19 1
     5    4   20 1
     6    4   30 1
     7    5   32 1
     8    5   36 1
     9    6   11 1
    10    6   12 1
    11    6   15 1
    12    7   13 1
    13    7   14 1
    14    7   17 1
    15    8   25 1
    16    8   28 1
    17    8   56 1
    18    9   23 ar
    19    9   27 ar
    20   10   33 3
    21   11   13 1
    22   11   37 1
    23   11   38 1
    24   12   14 1
    25   12   39 1
    26   12   40 1
    27   13   41 1
    28   13   42 1
    29   14   43 1
    30   14   44 1
    31   15   16 1
    32   15   45 1
    33   15   46 1
    34   16   18 1
    35   16   47 1
    36   16   48 1
    37   17   49 1
    38   17   50 1
    39   17   51 1
    40   18   52 1
    41   18   53 1
    42   19   20 ar
    43   19   22 ar
    44   20   24 ar
    45   21   23 ar
    46   21   24 ar
    47   21   25 ar
    48   22   23 ar
    49   22   54 1
    50   24   55 1
    51   25   26 ar
    52   26   27 ar
    53   26   33 1
    54   27   57 1
    55   28   29 ar
    56   28   31 ar
    57   29   32 ar
    58   29   58 1
    59   30   59 1
    60   30   60 1
    61   30   61 1
    62   31   34 ar
    63   32   35 ar
    64   34   35 ar
    65   34   62 1
    66   36   63 1
    67   36   64 1
    68   36   65 1
