@<TRIPOS>MOLECULE
5328940
   65    68     0     0     0
SMALL
NO_CHARGES

@<TRIPOS>ATOM
      1 Cl1         6.7100  -24.2180    4.1610 Cl        1 UNK         0.0000
      2 Cl2         4.8070  -29.2630    3.8330 Cl        1 UNK         0.0000
      3 O1         12.4390  -25.2760    0.1800 O.3       1 UNK         0.0000
      4 O2         10.9900  -25.2910    2.5140 O.3       1 UNK         0.0000
      5 O3          4.5670  -28.6430    0.9560 O.3       1 UNK         0.0000
      6 N1         11.2660  -28.5570   -0.0140 N.3       1 UNK         0.0000
      7 N2          9.1920  -29.7580   -1.5520 N.3       1 UNK         0.0000
      8 N3          6.2430  -24.1610    1.2250 N.pl3     1 UNK         0.0000
      9 N4          8.5180  -24.1690   -2.2570 N.ar      1 UNK         0.0000
     10 N5          3.9240  -23.3540   -1.3620 N.1       1 UNK         0.0000
     11 C1          9.8580  -28.4150    0.3840 C.3       1 UNK         0.0000
     12 C2         11.4880  -29.8350   -0.7050 C.3       1 UNK         0.0000
     13 C3          8.9700  -28.4800   -0.8600 C.3       1 UNK         0.0000
     14 C4         10.6000  -29.9000   -1.9490 C.3       1 UNK         0.0000
     15 C5         12.1560  -28.4240    1.1470 C.3       1 UNK         0.0000
     16 C6         13.2870  -27.4490    0.8140 C.3       1 UNK         0.0000
     17 C7          8.3020  -29.8910   -2.7120 C.3       1 UNK         0.0000
     18 C8         12.8560  -26.5410   -0.3390 C.3       1 UNK         0.0000
     19 C9         11.1090  -25.0030    0.1470 C.ar      1 UNK         0.0000
     20 C10        10.3690  -25.0110    1.3380 C.ar      1 UNK         0.0000
     21 C11         8.3880  -24.4490    0.1140 C.ar      1 UNK         0.0000
     22 C12        10.5020  -24.7220   -1.0560 C.ar      1 UNK         0.0000
     23 C13         9.1280  -24.4400   -1.0930 C.ar      1 UNK         0.0000
     24 C14         9.0320  -24.7390    1.3270 C.ar      1 UNK         0.0000
     25 C15         7.0040  -24.1640    0.0730 C.ar      1 UNK         0.0000
     26 C16         6.4300  -23.8840   -1.1750 C.ar      1 UNK         0.0000
     27 C17         7.2400  -23.8970   -2.3230 C.ar      1 UNK         0.0000
     28 C18         5.9020  -25.3700    1.8400 C.ar      1 UNK         0.0000
     29 C19         5.3990  -26.4180    1.0830 C.ar      1 UNK         0.0000
     30 C20        10.2230  -25.9800    3.5050 C.3       1 UNK         0.0000
     31 C21         6.0730  -25.5260    3.2120 C.ar      1 UNK         0.0000
     32 C22         5.0620  -27.6150    1.6960 C.ar      1 UNK         0.0000
     33 C23         5.0320  -23.5880   -1.2800 C.1       1 UNK         0.0000
     34 C24         5.7310  -26.7190    3.8210 C.ar      1 UNK         0.0000
     35 C25         5.2290  -27.7630    3.0650 C.ar      1 UNK         0.0000
     36 C26         5.5070  -29.4050    0.1940 C.3       1 UNK         0.0000
     37 H1          9.5890  -29.2220    1.0660 H         1 UNK         0.0000
     38 H2          9.7160  -27.4560    0.8820 H         1 UNK         0.0000
     39 H3         12.5350  -29.9100   -1.0000 H         1 UNK         0.0000
     40 H4         11.2380  -30.6580   -0.0360 H         1 UNK         0.0000
     41 H5          9.2200  -27.6560   -1.5290 H         1 UNK         0.0000
     42 H6          7.9230  -28.4040   -0.5650 H         1 UNK         0.0000
     43 H7         10.8680  -29.0930   -2.6310 H         1 UNK         0.0000
     44 H8         10.7430  -30.8580   -2.4470 H         1 UNK         0.0000
     45 H9         12.5770  -29.3980    1.3950 H         1 UNK         0.0000
     46 H10        11.5900  -28.0460    1.9980 H         1 UNK         0.0000
     47 H11        14.1750  -28.0090    0.5230 H         1 UNK         0.0000
     48 H12        13.5130  -26.8410    1.6910 H         1 UNK         0.0000
     49 H13         8.8750  -30.2300   -3.5740 H         1 UNK         0.0000
     50 H14         7.5200  -30.6170   -2.4880 H         1 UNK         0.0000
     51 H15         7.8480  -28.9250   -2.9340 H         1 UNK         0.0000
     52 H16        12.0290  -27.0040   -0.8760 H         1 UNK         0.0000
     53 H17        13.6960  -26.3950   -1.0200 H         1 UNK         0.0000
     54 H18        11.0810  -24.7190   -1.9670 H         1 UNK         0.0000
     55 H19         8.4690  -24.7470    2.2490 H         1 UNK         0.0000
     56 H20         5.9440  -23.3220    1.6070 H         1 UNK         0.0000
     57 H21         6.7960  -23.6810   -3.2830 H         1 UNK         0.0000
     58 H22         5.2690  -26.3010    0.0170 H         1 UNK         0.0000
     59 H23        10.4290  -27.0480    3.4490 H         1 UNK         0.0000
     60 H24        10.4920  -25.6090    4.4940 H         1 UNK         0.0000
     61 H25         9.1620  -25.8050    3.3270 H         1 UNK         0.0000
     62 H26         5.8610  -26.8360    4.8870 H         1 UNK         0.0000
     63 H27         5.4270  -30.4570    0.4670 H         1 UNK         0.0000
     64 H28         5.2950  -29.2860   -0.8680 H         1 UNK         0.0000
     65 H29         6.5170  -29.0510    0.4060 H         1 UNK         0.0000
@<TRIPOS>BOND
     1    1   31 1
     2    2   35 1
     3    3   18 1
     4    3   19 1
     5    4   20 1
     6    4   30 1
     7    5   32 1
     8    5   36 1
     9    6   11 1
    10    6   12 1
    11    6   15 1
    12    7   13 1
    13    7   14 1
    14    7   17 1
    15    8   25 1
    16    8   28 1
    17    8   56 1
    18    9   23 ar
    19    9   27 ar
    20   10   33 3
    21   11   13 1
    22   11   37 1
    23   11   38 1
    24   12   14 1
    25   12   39 1
    26   12   40 1
    27   13   41 1
    28   13   42 1
    29   14   43 1
    30   14   44 1
    31   15   16 1
    32   15   45 1
    33   15   46 1
    34   16   18 1
    35   16   47 1
    36   16   48 1
    37   17   49 1
    38   17   50 1
    39   17   51 1
    40   18   52 1
    41   18   53 1
    42   19   20 ar
    43   19   22 ar
    44   20   24 ar
    45   21   23 ar
    46   21   24 ar
    47   21   25 ar
    48   22   23 ar
    49   22   54 1
    50   24   55 1
    51   25   26 ar
    52   26   27 ar
    53   26   33 1
    54   27   57 1
    55   28   29 ar
    56   28   31 ar
    57   29   32 ar
    58   29   58 1
    59   30   59 1
    60   30   60 1
    61   30   61 1
    62   31   34 ar
    63   32   35 ar
    64   34   35 ar
    65   34   62 1
    66   36   63 1
    67   36   64 1
    68   36   65 1
