@<TRIPOS>MOLECULE
5328940
   65    68     0     0     0
SMALL
NO_CHARGES

@<TRIPOS>ATOM
      1 Cl1         3.9540  -23.0710   -2.0790 Cl        1 UNK         0.0000
      2 Cl2         3.7280  -28.4430   -2.5830 Cl        1 UNK         0.0000
      3 O1         11.1740  -22.7210   -1.2270 O.3       1 UNK         0.0000
      4 O2          8.5870  -22.9960   -0.3410 O.3       1 UNK         0.0000
      5 O3          5.4980  -27.9780   -4.9010 O.3       1 UNK         0.0000
      6 N1         10.2580  -25.2160    0.8670 N.3       1 UNK         0.0000
      7 N2          8.0580  -26.7410    1.8370 N.3       1 UNK         0.0000
      8 N3          5.7040  -23.2100   -4.4790 N.pl3     1 UNK         0.0000
      9 N4          9.6510  -22.8000   -5.7230 N.ar      1 UNK         0.0000
     10 N5          5.5200  -23.1670   -8.0400 N.1       1 UNK         0.0000
     11 C1         10.0150  -25.3500    2.3110 C.3       1 UNK         0.0000
     12 C2          9.7980  -26.4120    0.1470 C.3       1 UNK         0.0000
     13 C3          8.5180  -25.5460    2.5580 C.3       1 UNK         0.0000
     14 C4          8.3010  -26.6080    0.3940 C.3       1 UNK         0.0000
     15 C5         11.6770  -24.9500    0.5950 C.3       1 UNK         0.0000
     16 C6         11.9250  -24.9960   -0.9130 C.3       1 UNK         0.0000
     17 C7          6.6400  -27.0080    2.1100 C.3       1 UNK         0.0000
     18 C8         12.2860  -23.5970   -1.4150 C.3       1 UNK         0.0000
     19 C9         10.1600  -22.8060   -2.1270 C.ar      1 UNK         0.0000
     20 C10         8.8400  -22.9470   -1.6760 C.ar      1 UNK         0.0000
     21 C11         8.0660  -22.9840   -3.9420 C.ar      1 UNK         0.0000
     22 C12        10.4410  -22.7540   -3.4740 C.ar      1 UNK         0.0000
     23 C13         9.3960  -22.8420   -4.4070 C.ar      1 UNK         0.0000
     24 C14         7.8070  -23.0340   -2.5640 C.ar      1 UNK         0.0000
     25 C15         7.0160  -23.0720   -4.8850 C.ar      1 UNK         0.0000
     26 C16         7.3510  -23.0150   -6.2460 C.ar      1 UNK         0.0000
     27 C17         8.6980  -22.8730   -6.6170 C.ar      1 UNK         0.0000
     28 C18         5.2370  -24.4500   -4.0320 C.ar      1 UNK         0.0000
     29 C19         5.6050  -25.6110   -4.6960 C.ar      1 UNK         0.0000
     30 C20         7.2170  -23.0970    0.0560 C.3       1 UNK         0.0000
     31 C21         4.4090  -24.5220   -2.9170 C.ar      1 UNK         0.0000
     32 C22         5.1410  -26.8390   -4.2510 C.ar      1 UNK         0.0000
     33 C23         6.3300  -23.0990   -7.2470 C.1       1 UNK         0.0000
     34 C24         3.9440  -25.7470   -2.4780 C.ar      1 UNK         0.0000
     35 C25         4.3100  -26.9050   -3.1410 C.ar      1 UNK         0.0000
     36 C26         6.8130  -28.4820   -4.6520 C.3       1 UNK         0.0000
     37 H1         10.5640  -26.2110    2.6940 H         1 UNK         0.0000
     38 H2         10.3530  -24.4470    2.8210 H         1 UNK         0.0000
     39 H3          9.9770  -26.2830   -0.9210 H         1 UNK         0.0000
     40 H4         10.3430  -27.2840    0.5050 H         1 UNK         0.0000
     41 H5          7.9730  -24.6730    2.2000 H         1 UNK         0.0000
     42 H6          8.3390  -25.6740    3.6260 H         1 UNK         0.0000
     43 H7          7.7530  -25.7470    0.0110 H         1 UNK         0.0000
     44 H8          7.9640  -27.5100   -0.1170 H         1 UNK         0.0000
     45 H9         12.2880  -25.7060    1.0870 H         1 UNK         0.0000
     46 H10        11.9420  -23.9640    0.9760 H         1 UNK         0.0000
     47 H11        11.0240  -25.3420   -1.4190 H         1 UNK         0.0000
     48 H12        12.7460  -25.6820   -1.1260 H         1 UNK         0.0000
     49 H13         6.2600  -26.2680    2.8140 H         1 UNK         0.0000
     50 H14         6.0730  -26.9500    1.1810 H         1 UNK         0.0000
     51 H15         6.5350  -28.0050    2.5390 H         1 UNK         0.0000
     52 H16        12.5360  -23.6450   -2.4750 H         1 UNK         0.0000
     53 H17        13.1430  -23.2210   -0.8560 H         1 UNK         0.0000
     54 H18        11.4610  -22.6460   -3.8110 H         1 UNK         0.0000
     55 H19         6.7940  -23.1420   -2.2080 H         1 UNK         0.0000
     56 H20         5.1050  -22.4470   -4.5030 H         1 UNK         0.0000
     57 H21         8.9540  -22.8290   -7.6640 H         1 UNK         0.0000
     58 H22         6.2510  -25.5590   -5.5600 H         1 UNK         0.0000
     59 H23         6.9600  -24.1440    0.2120 H         1 UNK         0.0000
     60 H24         7.0670  -22.5430    0.9830 H         1 UNK         0.0000
     61 H25         6.5820  -22.6780   -0.7250 H         1 UNK         0.0000
     62 H26         3.2980  -25.8010   -1.6140 H         1 UNK         0.0000
     63 H27         6.8810  -29.5100   -5.0060 H         1 UNK         0.0000
     64 H28         7.5430  -27.8660   -5.1780 H         1 UNK         0.0000
     65 H29         7.0160  -28.4510   -3.5810 H         1 UNK         0.0000
@<TRIPOS>BOND
     1    1   31 1
     2    2   35 1
     3    3   18 1
     4    3   19 1
     5    4   20 1
     6    4   30 1
     7    5   32 1
     8    5   36 1
     9    6   11 1
    10    6   12 1
    11    6   15 1
    12    7   13 1
    13    7   14 1
    14    7   17 1
    15    8   25 1
    16    8   28 1
    17    8   56 1
    18    9   23 ar
    19    9   27 ar
    20   10   33 3
    21   11   13 1
    22   11   37 1
    23   11   38 1
    24   12   14 1
    25   12   39 1
    26   12   40 1
    27   13   41 1
    28   13   42 1
    29   14   43 1
    30   14   44 1
    31   15   16 1
    32   15   45 1
    33   15   46 1
    34   16   18 1
    35   16   47 1
    36   16   48 1
    37   17   49 1
    38   17   50 1
    39   17   51 1
    40   18   52 1
    41   18   53 1
    42   19   20 ar
    43   19   22 ar
    44   20   24 ar
    45   21   23 ar
    46   21   24 ar
    47   21   25 ar
    48   22   23 ar
    49   22   54 1
    50   24   55 1
    51   25   26 ar
    52   26   27 ar
    53   26   33 1
    54   27   57 1
    55   28   29 ar
    56   28   31 ar
    57   29   32 ar
    58   29   58 1
    59   30   59 1
    60   30   60 1
    61   30   61 1
    62   31   34 ar
    63   32   35 ar
    64   34   35 ar
    65   34   62 1
    66   36   63 1
    67   36   64 1
    68   36   65 1
