@<TRIPOS>MOLECULE
5328940
   65    68     0     0     0
SMALL
NO_CHARGES

@<TRIPOS>ATOM
      1 Cl1         1.9280  -23.1390   -0.8510 Cl        1 UNK         0.0000
      2 Cl2         1.7430  -28.3290    0.6310 Cl        1 UNK         0.0000
      3 O1          5.5740  -24.4570   -7.0000 O.3       1 UNK         0.0000
      4 O2          3.3040  -24.2570   -5.4650 O.3       1 UNK         0.0000
      5 O3          4.6880  -28.1110    0.5970 O.3       1 UNK         0.0000
      6 N1          5.5170  -28.4850   -5.3990 N.3       1 UNK         0.0000
      7 N2          3.2820  -28.7560   -3.6550 N.3       1 UNK         0.0000
      8 N3          4.8750  -23.5100   -0.7270 N.pl3     1 UNK         0.0000
      9 N4          8.2540  -23.8180   -3.1330 N.ar      1 UNK         0.0000
     10 N5          7.6160  -23.1210    1.5230 N.1       1 UNK         0.0000
     11 C1          4.1800  -28.7820   -5.9320 C.3       1 UNK         0.0000
     12 C2          5.4230  -27.6860   -4.1690 C.3       1 UNK         0.0000
     13 C3          3.3750  -29.5550   -4.8850 C.3       1 UNK         0.0000
     14 C4          4.6190  -28.4590   -3.1220 C.3       1 UNK         0.0000
     15 C5          6.3460  -27.8090   -6.4050 C.3       1 UNK         0.0000
     16 C6          5.4760  -26.8610   -7.2310 C.3       1 UNK         0.0000
     17 C7          2.4520  -29.4320   -2.6500 C.3       1 UNK         0.0000
     18 C8          6.2620  -25.5860   -7.5420 C.3       1 UNK         0.0000
     19 C9          5.6830  -24.2510   -5.6610 C.ar      1 UNK         0.0000
     20 C10         4.5260  -24.1490   -4.8780 C.ar      1 UNK         0.0000
     21 C11         5.8720  -23.8290   -2.9240 C.ar      1 UNK         0.0000
     22 C12         6.9310  -24.1440   -5.0890 C.ar      1 UNK         0.0000
     23 C13         7.0470  -23.9310   -3.7070 C.ar      1 UNK         0.0000
     24 C14         4.6130  -23.9420   -3.5320 C.ar      1 UNK         0.0000
     25 C15         5.9930  -23.6150   -1.5310 C.ar      1 UNK         0.0000
     26 C16         7.2840  -23.5120   -0.9940 C.ar      1 UNK         0.0000
     27 C17         8.3950  -23.6250   -1.8470 C.ar      1 UNK         0.0000
     28 C18         4.1360  -24.6520   -0.4050 C.ar      1 UNK         0.0000
     29 C19         4.7880  -25.8270   -0.0600 C.ar      1 UNK         0.0000
     30 C20         2.5590  -25.4480   -5.1960 C.3       1 UNK         0.0000
     31 C21         2.7460  -24.6100   -0.4250 C.ar      1 UNK         0.0000
     32 C22         4.0520  -26.9580    0.2590 C.ar      1 UNK         0.0000
     33 C23         7.4700  -23.2950    0.4100 C.1       1 UNK         0.0000
     34 C24         2.0150  -25.7410   -0.1120 C.ar      1 UNK         0.0000
     35 C25         2.6650  -26.9130    0.2320 C.ar      1 UNK         0.0000
     36 C26         5.2790  -28.1680    1.8970 C.3       1 UNK         0.0000
     37 H1          3.6670  -27.8500   -6.1700 H         1 UNK         0.0000
     38 H2          4.2750  -29.3850   -6.8360 H         1 UNK         0.0000
     39 H3          6.4250  -27.4900   -3.7870 H         1 UNK         0.0000
     40 H4          4.9250  -26.7420   -4.3860 H         1 UNK         0.0000
     41 H5          3.8740  -30.5000   -4.6680 H         1 UNK         0.0000
     42 H6          2.3740  -29.7520   -5.2670 H         1 UNK         0.0000
     43 H7          5.1310  -29.3910   -2.8840 H         1 UNK         0.0000
     44 H8          4.5250  -27.8560   -2.2190 H         1 UNK         0.0000
     45 H9          6.7980  -28.5530   -7.0610 H         1 UNK         0.0000
     46 H10         7.1310  -27.2400   -5.9070 H         1 UNK         0.0000
     47 H11         4.5790  -26.6060   -6.6660 H         1 UNK         0.0000
     48 H12         5.1910  -27.3480   -8.1640 H         1 UNK         0.0000
     49 H13         1.4560  -29.6040   -3.0560 H         1 UNK         0.0000
     50 H14         2.9060  -30.3860   -2.3850 H         1 UNK         0.0000
     51 H15         2.3780  -28.8050   -1.7600 H         1 UNK         0.0000
     52 H16         6.3550  -25.4710   -8.6210 H         1 UNK         0.0000
     53 H17         7.2550  -25.6540   -7.0960 H         1 UNK         0.0000
     54 H18         7.8160  -24.2240   -5.7020 H         1 UNK         0.0000
     55 H19         3.7150  -23.8650   -2.9360 H         1 UNK         0.0000
     56 H20         4.6040  -22.6440   -0.3850 H         1 UNK         0.0000
     57 H21         9.3880  -23.5460   -1.4320 H         1 UNK         0.0000
     58 H22         5.8670  -25.8610   -0.0390 H         1 UNK         0.0000
     59 H23         2.5320  -25.6250   -4.1210 H         1 UNK         0.0000
     60 H24         1.5420  -25.3320   -5.5710 H         1 UNK         0.0000
     61 H25         3.0350  -26.2940   -5.6920 H         1 UNK         0.0000
     62 H26         0.9360  -25.7080   -0.1320 H         1 UNK         0.0000
     63 H27         6.2670  -28.6230    1.8270 H         1 UNK         0.0000
     64 H28         5.3700  -27.1600    2.3000 H         1 UNK         0.0000
     65 H29         4.6490  -28.7670    2.5560 H         1 UNK         0.0000
@<TRIPOS>BOND
     1    1   31 1
     2    2   35 1
     3    3   18 1
     4    3   19 1
     5    4   20 1
     6    4   30 1
     7    5   32 1
     8    5   36 1
     9    6   11 1
    10    6   12 1
    11    6   15 1
    12    7   13 1
    13    7   14 1
    14    7   17 1
    15    8   25 1
    16    8   28 1
    17    8   56 1
    18    9   23 ar
    19    9   27 ar
    20   10   33 3
    21   11   13 1
    22   11   37 1
    23   11   38 1
    24   12   14 1
    25   12   39 1
    26   12   40 1
    27   13   41 1
    28   13   42 1
    29   14   43 1
    30   14   44 1
    31   15   16 1
    32   15   45 1
    33   15   46 1
    34   16   18 1
    35   16   47 1
    36   16   48 1
    37   17   49 1
    38   17   50 1
    39   17   51 1
    40   18   52 1
    41   18   53 1
    42   19   20 ar
    43   19   22 ar
    44   20   24 ar
    45   21   23 ar
    46   21   24 ar
    47   21   25 ar
    48   22   23 ar
    49   22   54 1
    50   24   55 1
    51   25   26 ar
    52   26   27 ar
    53   26   33 1
    54   27   57 1
    55   28   29 ar
    56   28   31 ar
    57   29   32 ar
    58   29   58 1
    59   30   59 1
    60   30   60 1
    61   30   61 1
    62   31   34 ar
    63   32   35 ar
    64   34   35 ar
    65   34   62 1
    66   36   63 1
    67   36   64 1
    68   36   65 1
