@<TRIPOS>MOLECULE
5328940
   65    68     0     0     0
SMALL
NO_CHARGES

@<TRIPOS>ATOM
      1 Cl1         3.2440  -22.7210   -1.5370 Cl        1 UNK         0.0000
      2 Cl2         1.5620  -27.7380   -0.4510 Cl        1 UNK         0.0000
      3 O1          8.7920  -24.7260   -5.8750 O.3       1 UNK         0.0000
      4 O2          6.1830  -24.0400   -5.3570 O.3       1 UNK         0.0000
      5 O3          4.2920  -28.0750    0.6240 O.3       1 UNK         0.0000
      6 N1          7.3940  -28.5680   -4.6960 N.3       1 UNK         0.0000
      7 N2          4.6640  -28.2590   -3.9470 N.3       1 UNK         0.0000
      8 N3          5.8080  -23.6330   -0.3400 N.pl3     1 UNK         0.0000
      9 N4          9.7390  -24.6650   -1.2230 N.ar      1 UNK         0.0000
     10 N5          7.4160  -23.8350    2.8370 N.1       1 UNK         0.0000
     11 C1          6.3420  -28.4690   -5.7180 C.3       1 UNK         0.0000
     12 C2          7.0270  -27.8080   -3.4930 C.3       1 UNK         0.0000
     13 C3          5.0310  -29.0180   -5.1520 C.3       1 UNK         0.0000
     14 C4          5.7160  -28.3570   -2.9270 C.3       1 UNK         0.0000
     15 C5          8.6870  -28.1200   -5.2290 C.3       1 UNK         0.0000
     16 C6          8.4560  -27.0770   -6.3230 C.3       1 UNK         0.0000
     17 C7          3.3700  -28.7060   -3.4160 C.3       1 UNK         0.0000
     18 C8          9.4740  -25.9450   -6.1740 C.3       1 UNK         0.0000
     19 C9          8.3870  -24.5440   -4.5910 C.ar      1 UNK         0.0000
     20 C10         7.0560  -24.1940   -4.3260 C.ar      1 UNK         0.0000
     21 C11         7.5270  -24.1650   -1.9780 C.ar      1 UNK         0.0000
     22 C12         9.2890  -24.7060   -3.5630 C.ar      1 UNK         0.0000
     23 C13         8.8730  -24.5180   -2.2360 C.ar      1 UNK         0.0000
     24 C14         6.6270  -24.0070   -3.0440 C.ar      1 UNK         0.0000
     25 C15         7.1110  -23.9780   -0.6400 C.ar      1 UNK         0.0000
     26 C16         8.0650  -24.1520    0.3730 C.ar      1 UNK         0.0000
     27 C17         9.3800  -24.5030    0.0250 C.ar      1 UNK         0.0000
     28 C18         4.8040  -24.6070   -0.3650 C.ar      1 UNK         0.0000
     29 C19         5.0500  -25.8710    0.1490 C.ar      1 UNK         0.0000
     30 C20         5.6270  -22.7370   -5.5480 C.3       1 UNK         0.0000
     31 C21         3.5560  -24.3060   -0.9000 C.ar      1 UNK         0.0000
     32 C22         4.0530  -26.8350    0.1220 C.ar      1 UNK         0.0000
     33 C23         7.7030  -23.9760    1.7470 C.1       1 UNK         0.0000
     34 C24         2.5660  -25.2700   -0.9300 C.ar      1 UNK         0.0000
     35 C25         2.8110  -26.5310   -0.4180 C.ar      1 UNK         0.0000
     36 C26         4.2600  -28.2170    2.0460 C.3       1 UNK         0.0000
     37 H1          6.2070  -27.4250   -6.0020 H         1 UNK         0.0000
     38 H2          6.6310  -29.0500   -6.5940 H         1 UNK         0.0000
     39 H3          7.8160  -27.9070   -2.7470 H         1 UNK         0.0000
     40 H4          6.9000  -26.7570   -3.7510 H         1 UNK         0.0000
     41 H5          5.1580  -30.0690   -4.8930 H         1 UNK         0.0000
     42 H6          4.2420  -28.9190   -5.8970 H         1 UNK         0.0000
     43 H7          5.8510  -29.4000   -2.6430 H         1 UNK         0.0000
     44 H8          5.4280  -27.7760   -2.0500 H         1 UNK         0.0000
     45 H9          9.2220  -28.9730   -5.6470 H         1 UNK         0.0000
     46 H10         9.2780  -27.6790   -4.4260 H         1 UNK         0.0000
     47 H11         7.4480  -26.6730   -6.2330 H         1 UNK         0.0000
     48 H12         8.5720  -27.5440   -7.3020 H         1 UNK         0.0000
     49 H13         2.6220  -27.9310   -3.5820 H         1 UNK         0.0000
     50 H14         3.0650  -29.6200   -3.9240 H         1 UNK         0.0000
     51 H15         3.4640  -28.8980   -2.3470 H         1 UNK         0.0000
     52 H16        10.0290  -25.8320   -7.1050 H         1 UNK         0.0000
     53 H17        10.1660  -26.1830   -5.3650 H         1 UNK         0.0000
     54 H18        10.3120  -24.9750   -3.7780 H         1 UNK         0.0000
     55 H19         5.6000  -23.7370   -2.8490 H         1 UNK         0.0000
     56 H20         5.5890  -22.7160   -0.1120 H         1 UNK         0.0000
     57 H21        10.1140  -24.6370    0.8060 H         1 UNK         0.0000
     58 H22         6.0170  -26.1060    0.5680 H         1 UNK         0.0000
     59 H23         5.9510  -22.0820   -4.7390 H         1 UNK         0.0000
     60 H24         5.9670  -22.3330   -6.5010 H         1 UNK         0.0000
     61 H25         4.5390  -22.8030   -5.5480 H         1 UNK         0.0000
     62 H26         1.5980  -25.0360   -1.3490 H         1 UNK         0.0000
     63 H27         4.1770  -29.2720    2.3040 H         1 UNK         0.0000
     64 H28         5.1760  -27.8080    2.4730 H         1 UNK         0.0000
     65 H29         3.4010  -27.6760    2.4450 H         1 UNK         0.0000
@<TRIPOS>BOND
     1    1   31 1
     2    2   35 1
     3    3   18 1
     4    3   19 1
     5    4   20 1
     6    4   30 1
     7    5   32 1
     8    5   36 1
     9    6   11 1
    10    6   12 1
    11    6   15 1
    12    7   13 1
    13    7   14 1
    14    7   17 1
    15    8   25 1
    16    8   28 1
    17    8   56 1
    18    9   23 ar
    19    9   27 ar
    20   10   33 3
    21   11   13 1
    22   11   37 1
    23   11   38 1
    24   12   14 1
    25   12   39 1
    26   12   40 1
    27   13   41 1
    28   13   42 1
    29   14   43 1
    30   14   44 1
    31   15   16 1
    32   15   45 1
    33   15   46 1
    34   16   18 1
    35   16   47 1
    36   16   48 1
    37   17   49 1
    38   17   50 1
    39   17   51 1
    40   18   52 1
    41   18   53 1
    42   19   20 ar
    43   19   22 ar
    44   20   24 ar
    45   21   23 ar
    46   21   24 ar
    47   21   25 ar
    48   22   23 ar
    49   22   54 1
    50   24   55 1
    51   25   26 ar
    52   26   27 ar
    53   26   33 1
    54   27   57 1
    55   28   29 ar
    56   28   31 ar
    57   29   32 ar
    58   29   58 1
    59   30   59 1
    60   30   60 1
    61   30   61 1
    62   31   34 ar
    63   32   35 ar
    64   34   35 ar
    65   34   62 1
    66   36   63 1
    67   36   64 1
    68   36   65 1
