@<TRIPOS>MOLECULE
5328940
   65    68     0     0     0
SMALL
NO_CHARGES

@<TRIPOS>ATOM
      1 Cl1         7.3800  -23.8160    2.6090 Cl        1 UNK         0.0000
      2 Cl2         6.5150  -29.1300    3.0360 Cl        1 UNK         0.0000
      3 O1         10.9670  -23.6490   -3.3260 O.3       1 UNK         0.0000
      4 O2         10.6360  -23.7990   -0.6020 O.3       1 UNK         0.0000
      5 O3          4.9110  -28.7410    0.5870 O.3       1 UNK         0.0000
      6 N1         10.4100  -27.5680   -3.4960 N.3       1 UNK         0.0000
      7 N2          9.5760  -27.9650   -0.8020 N.3       1 UNK         0.0000
      8 N3          5.6570  -24.0240    0.1950 N.pl3     1 UNK         0.0000
      9 N4          6.2580  -23.8000   -3.9140 N.ar      1 UNK         0.0000
     10 N5          2.3720  -24.0770   -1.1940 N.1       1 UNK         0.0000
     11 C1          9.0050  -27.3750   -3.1090 C.3       1 UNK         0.0000
     12 C2         11.3090  -27.2500   -2.3770 C.3       1 UNK         0.0000
     13 C3          8.6760  -28.2810   -1.9210 C.3       1 UNK         0.0000
     14 C4         10.9800  -28.1570   -1.1890 C.3       1 UNK         0.0000
     15 C5         10.7430  -26.7690   -4.6820 C.3       1 UNK         0.0000
     16 C6         11.7740  -25.7040   -4.3080 C.3       1 UNK         0.0000
     17 C7          9.2420  -28.7620    0.3840 C.3       1 UNK         0.0000
     18 C8         11.1920  -24.3140   -4.5700 C.3       1 UNK         0.0000
     19 C9          9.7140  -23.7220   -2.8030 C.ar      1 UNK         0.0000
     20 C10         9.5450  -23.7990   -1.4140 C.ar      1 UNK         0.0000
     21 C11         7.1690  -23.8720   -1.7050 C.ar      1 UNK         0.0000
     22 C12         8.6250  -23.7190   -3.6460 C.ar      1 UNK         0.0000
     23 C13         7.3310  -23.7950   -3.1090 C.ar      1 UNK         0.0000
     24 C14         8.2960  -23.8720   -0.8690 C.ar      1 UNK         0.0000
     25 C15         5.8630  -23.9470   -1.1680 C.ar      1 UNK         0.0000
     26 C16         4.7850  -23.9430   -2.0640 C.ar      1 UNK         0.0000
     27 C17         5.0380  -23.8640   -3.4440 C.ar      1 UNK         0.0000
     28 C18         5.8580  -25.2340    0.8660 C.ar      1 UNK         0.0000
     29 C19         5.2780  -26.3990    0.3870 C.ar      1 UNK         0.0000
     30 C20        10.6660  -24.7750    0.4420 C.3       1 UNK         0.0000
     31 C21         6.6460  -25.2720    2.0120 C.ar      1 UNK         0.0000
     32 C22         5.4790  -27.5980    1.0540 C.ar      1 UNK         0.0000
     33 C23         3.4390  -24.0170   -1.5800 C.1       1 UNK         0.0000
     34 C24         6.8410  -26.4670    2.6780 C.ar      1 UNK         0.0000
     35 C25         6.2620  -27.6290    2.2000 C.ar      1 UNK         0.0000
     36 C26         5.3680  -29.2210   -0.6800 C.3       1 UNK         0.0000
     37 H1          8.8450  -26.3340   -2.8280 H         1 UNK         0.0000
     38 H2          8.3590  -27.6280   -3.9490 H         1 UNK         0.0000
     39 H3         12.3420  -27.4130   -2.6850 H         1 UNK         0.0000
     40 H4         11.1750  -26.2090   -2.0880 H         1 UNK         0.0000
     41 H5          8.8100  -29.3240   -2.2110 H         1 UNK         0.0000
     42 H6          7.6430  -28.1190   -1.6130 H         1 UNK         0.0000
     43 H7         11.1400  -29.1980   -1.4700 H         1 UNK         0.0000
     44 H8         11.6270  -27.9040   -0.3500 H         1 UNK         0.0000
     45 H9          9.8410  -26.2860   -5.0590 H         1 UNK         0.0000
     46 H10        11.1560  -27.4190   -5.4540 H         1 UNK         0.0000
     47 H11        12.6720  -25.8400   -4.9110 H         1 UNK         0.0000
     48 H12        12.0280  -25.7980   -3.2520 H         1 UNK         0.0000
     49 H13         8.3780  -29.3910    0.1690 H         1 UNK         0.0000
     50 H14        10.0910  -29.3910    0.6500 H         1 UNK         0.0000
     51 H15         9.0080  -28.0960    1.2150 H         1 UNK         0.0000
     52 H16        10.2480  -24.4110   -5.1060 H         1 UNK         0.0000
     53 H17        11.8920  -23.7330   -5.1700 H         1 UNK         0.0000
     54 H18         8.7670  -23.6600   -4.7140 H         1 UNK         0.0000
     55 H19         8.1750  -23.9310    0.2030 H         1 UNK         0.0000
     56 H20         5.3720  -23.2380    0.6880 H         1 UNK         0.0000
     57 H21         4.2070  -23.8600   -4.1330 H         1 UNK         0.0000
     58 H22         4.6690  -26.3730   -0.5050 H         1 UNK         0.0000
     59 H23        11.6680  -24.8190    0.8690 H         1 UNK         0.0000
     60 H24         9.9520  -24.4990    1.2170 H         1 UNK         0.0000
     61 H25        10.4020  -25.7510    0.0340 H         1 UNK         0.0000
     62 H26         7.4500  -26.4950    3.5700 H         1 UNK         0.0000
     63 H27         6.1710  -28.5810   -1.0430 H         1 UNK         0.0000
     64 H28         5.7350  -30.2410   -0.5700 H         1 UNK         0.0000
     65 H29         4.5420  -29.2070   -1.3920 H         1 UNK         0.0000
@<TRIPOS>BOND
     1    1   31 1
     2    2   35 1
     3    3   18 1
     4    3   19 1
     5    4   20 1
     6    4   30 1
     7    5   32 1
     8    5   36 1
     9    6   11 1
    10    6   12 1
    11    6   15 1
    12    7   13 1
    13    7   14 1
    14    7   17 1
    15    8   25 1
    16    8   28 1
    17    8   56 1
    18    9   23 ar
    19    9   27 ar
    20   10   33 3
    21   11   13 1
    22   11   37 1
    23   11   38 1
    24   12   14 1
    25   12   39 1
    26   12   40 1
    27   13   41 1
    28   13   42 1
    29   14   43 1
    30   14   44 1
    31   15   16 1
    32   15   45 1
    33   15   46 1
    34   16   18 1
    35   16   47 1
    36   16   48 1
    37   17   49 1
    38   17   50 1
    39   17   51 1
    40   18   52 1
    41   18   53 1
    42   19   20 ar
    43   19   22 ar
    44   20   24 ar
    45   21   23 ar
    46   21   24 ar
    47   21   25 ar
    48   22   23 ar
    49   22   54 1
    50   24   55 1
    51   25   26 ar
    52   26   27 ar
    53   26   33 1
    54   27   57 1
    55   28   29 ar
    56   28   31 ar
    57   29   32 ar
    58   29   58 1
    59   30   59 1
    60   30   60 1
    61   30   61 1
    62   31   34 ar
    63   32   35 ar
    64   34   35 ar
    65   34   62 1
    66   36   63 1
    67   36   64 1
    68   36   65 1
