@<TRIPOS>MOLECULE
5328940
   65    68     0     0     0
SMALL
NO_CHARGES

@<TRIPOS>ATOM
      1 Cl1         7.2760  -23.8310    3.3850 Cl        1 UNK         0.0000
      2 Cl2         5.6690  -28.9770    3.7070 Cl        1 UNK         0.0000
      3 O1          2.9540  -23.3130   -4.8310 O.3       1 UNK         0.0000
      4 O2          2.1180  -23.2020   -2.2160 O.3       1 UNK         0.0000
      5 O3          4.8210  -28.5520    0.9110 O.3       1 UNK         0.0000
      6 N1          3.8220  -26.7950   -4.8090 N.3       1 UNK         0.0000
      7 N2          6.0730  -28.0030   -3.5530 N.3       1 UNK         0.0000
      8 N3          6.2290  -23.9820    0.6060 N.pl3     1 UNK         0.0000
      9 N4          7.4010  -24.1260   -3.3820 N.ar      1 UNK         0.0000
     10 N5          9.7380  -24.6120    0.7260 N.1       1 UNK         0.0000
     11 C1          4.8450  -27.4860   -5.6070 C.3       1 UNK         0.0000
     12 C2          3.7020  -27.3990   -3.4750 C.3       1 UNK         0.0000
     13 C3          6.1930  -27.3990   -4.8880 C.3       1 UNK         0.0000
     14 C4          5.0490  -27.3120   -2.7560 C.3       1 UNK         0.0000
     15 C5          2.5280  -26.7910   -5.5040 C.3       1 UNK         0.0000
     16 C6          1.8830  -25.4100   -5.3760 C.3       1 UNK         0.0000
     17 C7          7.3670  -28.0080   -2.8590 C.3       1 UNK         0.0000
     18 C8          2.8770  -24.3370   -5.8240 C.3       1 UNK         0.0000
     19 C9          3.8540  -23.4890   -3.8290 C.ar      1 UNK         0.0000
     20 C10         3.4280  -23.4320   -2.4950 C.ar      1 UNK         0.0000
     21 C11         5.6690  -23.8460   -1.7580 C.ar      1 UNK         0.0000
     22 C12         5.1760  -23.7220   -4.1360 C.ar      1 UNK         0.0000
     23 C13         6.1080  -23.9050   -3.1030 C.ar      1 UNK         0.0000
     24 C14         4.3160  -23.6070   -1.4730 C.ar      1 UNK         0.0000
     25 C15         6.6110  -24.0310   -0.7200 C.ar      1 UNK         0.0000
     26 C16         7.9460  -24.2640   -1.0810 C.ar      1 UNK         0.0000
     27 C17         8.2930  -24.3060   -2.4420 C.ar      1 UNK         0.0000
     28 C18         6.0960  -25.1660    1.3380 C.ar      1 UNK         0.0000
     29 C19         5.5190  -26.2840    0.7530 C.ar      1 UNK         0.0000
     30 C20         1.3370  -24.3230   -1.7960 C.3       1 UNK         0.0000
     31 C21         6.5460  -25.2260    2.6520 C.ar      1 UNK         0.0000
     32 C22         5.3870  -27.4560    1.4810 C.ar      1 UNK         0.0000
     33 C23         8.9460  -24.4590   -0.0740 C.1       1 UNK         0.0000
     34 C24         6.4090  -26.3950    3.3780 C.ar      1 UNK         0.0000
     35 C25         5.8330  -27.5090    2.7940 C.ar      1 UNK         0.0000
     36 C26         5.6900  -29.4290    0.1890 C.3       1 UNK         0.0000
     37 H1          4.5640  -28.5320   -5.7300 H         1 UNK         0.0000
     38 H2          4.9240  -27.0130   -6.5860 H         1 UNK         0.0000
     39 H3          2.9470  -26.8610   -2.9000 H         1 UNK         0.0000
     40 H4          3.4090  -28.4430   -3.5740 H         1 UNK         0.0000
     41 H5          6.4860  -26.3540   -4.7890 H         1 UNK         0.0000
     42 H6          6.9470  -27.9360   -5.4630 H         1 UNK         0.0000
     43 H7          5.3300  -26.2660   -2.6330 H         1 UNK         0.0000
     44 H8          4.9700  -27.7850   -1.7770 H         1 UNK         0.0000
     45 H9          1.8740  -27.5400   -5.0580 H         1 UNK         0.0000
     46 H10         2.6800  -27.0230   -6.5580 H         1 UNK         0.0000
     47 H11         1.6030  -25.2350   -4.3370 H         1 UNK         0.0000
     48 H12         0.9920  -25.3640   -6.0030 H         1 UNK         0.0000
     49 H13         7.6510  -29.0330   -2.6250 H         1 UNK         0.0000
     50 H14         8.1250  -27.5580   -3.5000 H         1 UNK         0.0000
     51 H15         7.2850  -27.4340   -1.9350 H         1 UNK         0.0000
     52 H16         2.5440  -23.9050   -6.7670 H         1 UNK         0.0000
     53 H17         3.8620  -24.7880   -5.9570 H         1 UNK         0.0000
     54 H18         5.4940  -23.7640   -5.1670 H         1 UNK         0.0000
     55 H19         3.9790  -23.5620   -0.4480 H         1 UNK         0.0000
     56 H20         6.0540  -23.1280    1.0290 H         1 UNK         0.0000
     57 H21         9.3210  -24.4860   -2.7180 H         1 UNK         0.0000
     58 H22         5.1710  -26.2410   -0.2690 H         1 UNK         0.0000
     59 H23         1.1560  -24.9800   -2.6470 H         1 UNK         0.0000
     60 H24         1.8760  -24.8710   -1.0230 H         1 UNK         0.0000
     61 H25         0.3840  -23.9730   -1.3980 H         1 UNK         0.0000
     62 H26         6.7560  -26.4390    4.4000 H         1 UNK         0.0000
     63 H27         6.4240  -28.8410   -0.3610 H         1 UNK         0.0000
     64 H28         6.2010  -30.0900    0.8880 H         1 UNK         0.0000
     65 H29         5.1030  -30.0250   -0.5110 H         1 UNK         0.0000
@<TRIPOS>BOND
     1    1   31 1
     2    2   35 1
     3    3   18 1
     4    3   19 1
     5    4   20 1
     6    4   30 1
     7    5   32 1
     8    5   36 1
     9    6   11 1
    10    6   12 1
    11    6   15 1
    12    7   13 1
    13    7   14 1
    14    7   17 1
    15    8   25 1
    16    8   28 1
    17    8   56 1
    18    9   23 ar
    19    9   27 ar
    20   10   33 3
    21   11   13 1
    22   11   37 1
    23   11   38 1
    24   12   14 1
    25   12   39 1
    26   12   40 1
    27   13   41 1
    28   13   42 1
    29   14   43 1
    30   14   44 1
    31   15   16 1
    32   15   45 1
    33   15   46 1
    34   16   18 1
    35   16   47 1
    36   16   48 1
    37   17   49 1
    38   17   50 1
    39   17   51 1
    40   18   52 1
    41   18   53 1
    42   19   20 ar
    43   19   22 ar
    44   20   24 ar
    45   21   23 ar
    46   21   24 ar
    47   21   25 ar
    48   22   23 ar
    49   22   54 1
    50   24   55 1
    51   25   26 ar
    52   26   27 ar
    53   26   33 1
    54   27   57 1
    55   28   29 ar
    56   28   31 ar
    57   29   32 ar
    58   29   58 1
    59   30   59 1
    60   30   60 1
    61   30   61 1
    62   31   34 ar
    63   32   35 ar
    64   34   35 ar
    65   34   62 1
    66   36   63 1
    67   36   64 1
    68   36   65 1
