@<TRIPOS>MOLECULE
5328940
   65    68     0     0     0
SMALL
NO_CHARGES

@<TRIPOS>ATOM
      1 Cl1         7.2660  -24.0750   -8.1740 Cl        1 UNK         0.0000
      2 Cl2         9.0130  -29.1530   -7.5980 Cl        1 UNK         0.0000
      3 O1          7.8760  -23.0250    1.0530 O.3       1 UNK         0.0000
      4 O2          9.7170  -22.9730   -0.9860 O.3       1 UNK         0.0000
      5 O3          8.7120  -28.5890   -4.7150 O.3       1 UNK         0.0000
      6 N1          7.4310  -26.4760    0.9010 N.3       1 UNK         0.0000
      7 N2          6.2950  -27.8830   -1.2990 N.3       1 UNK         0.0000
      8 N3          7.1710  -24.0780   -5.2030 N.pl3     1 UNK         0.0000
      9 N4          4.4570  -24.1260   -2.0520 N.ar      1 UNK         0.0000
     10 N5          4.0500  -24.8940   -6.7220 N.1       1 UNK         0.0000
     11 C1          6.1920  -27.2500    1.0640 C.3       1 UNK         0.0000
     12 C2          8.2900  -27.0750   -0.1310 C.3       1 UNK         0.0000
     13 C3          5.4370  -27.2850   -0.2660 C.3       1 UNK         0.0000
     14 C4          7.5340  -27.1100   -1.4610 C.3       1 UNK         0.0000
     15 C5          8.1480  -26.3560    2.1770 C.3       1 UNK         0.0000
     16 C6          8.6260  -24.9140    2.3600 C.3       1 UNK         0.0000
     17 C7          5.5790  -28.0050   -2.5750 C.3       1 UNK         0.0000
     18 C8          7.4750  -23.9520    2.0630 C.3       1 UNK         0.0000
     19 C9          7.4780  -23.2880   -0.2190 C.ar      1 UNK         0.0000
     20 C10         8.4160  -23.2610   -1.2600 C.ar      1 UNK         0.0000
     21 C11         6.6960  -23.8200   -2.8300 C.ar      1 UNK         0.0000
     22 C12         6.1560  -23.5770   -0.4720 C.ar      1 UNK         0.0000
     23 C13         5.7420  -23.8480   -1.7850 C.ar      1 UNK         0.0000
     24 C14         8.0380  -23.5220   -2.5450 C.ar      1 UNK         0.0000
     25 C15         6.2760  -24.0940   -4.1520 C.ar      1 UNK         0.0000
     26 C16         4.9190  -24.3830   -4.3610 C.ar      1 UNK         0.0000
     27 C17         4.0410  -24.3890   -3.2640 C.ar      1 UNK         0.0000
     28 C18         7.6080  -25.2810   -5.7670 C.ar      1 UNK         0.0000
     29 C19         7.9460  -26.3490   -4.9500 C.ar      1 UNK         0.0000
     30 C20        10.6460  -24.0600   -1.0340 C.3       1 UNK         0.0000
     31 C21         7.6970  -25.4080   -7.1490 C.ar      1 UNK         0.0000
     32 C22         8.3790  -27.5400   -5.5130 C.ar      1 UNK         0.0000
     33 C23         4.4340  -24.6690   -5.6780 C.1       1 UNK         0.0000
     34 C24         8.1330  -26.5950   -7.7070 C.ar      1 UNK         0.0000
     35 C25         8.4720  -27.6610   -6.8930 C.ar      1 UNK         0.0000
     36 C26         9.9580  -28.5030   -4.0180 C.3       1 UNK         0.0000
     37 H1          6.4360  -28.2670    1.3710 H         1 UNK         0.0000
     38 H2          5.5680  -26.7790    1.8240 H         1 UNK         0.0000
     39 H3          9.1940  -26.4770   -0.2420 H         1 UNK         0.0000
     40 H4          8.5570  -28.0890    0.1620 H         1 UNK         0.0000
     41 H5          5.1690  -26.2700   -0.5600 H         1 UNK         0.0000
     42 H6          4.5320  -27.8820   -0.1560 H         1 UNK         0.0000
     43 H7          7.2910  -26.0930   -1.7690 H         1 UNK         0.0000
     44 H8          8.1590  -27.5800   -2.2210 H         1 UNK         0.0000
     45 H9          9.0070  -27.0260    2.1760 H         1 UNK         0.0000
     46 H10         7.4800  -26.6230    2.9960 H         1 UNK         0.0000
     47 H11         9.4510  -24.7160    1.6760 H         1 UNK         0.0000
     48 H12         8.9640  -24.7710    3.3870 H         1 UNK         0.0000
     49 H13         5.9910  -27.2960   -3.2920 H         1 UNK         0.0000
     50 H14         5.6910  -29.0180   -2.9600 H         1 UNK         0.0000
     51 H15         4.5210  -27.7900   -2.4180 H         1 UNK         0.0000
     52 H16         7.2120  -23.4090    2.9710 H         1 UNK         0.0000
     53 H17         6.6090  -24.5170    1.7150 H         1 UNK         0.0000
     54 H18         5.4410  -23.5950    0.3360 H         1 UNK         0.0000
     55 H19         8.7680  -23.5000   -3.3410 H         1 UNK         0.0000
     56 H20         7.4970  -23.2330   -5.5490 H         1 UNK         0.0000
     57 H21         2.9970  -24.6120   -3.4270 H         1 UNK         0.0000
     58 H22         7.8740  -26.2540   -3.8770 H         1 UNK         0.0000
     59 H23        10.2000  -24.9400   -0.5730 H         1 UNK         0.0000
     60 H24        10.8920  -24.2790   -2.0730 H         1 UNK         0.0000
     61 H25        11.5520  -23.7860   -0.4950 H         1 UNK         0.0000
     62 H26         8.2060  -26.6920   -8.7810 H         1 UNK         0.0000
     63 H27         9.7790  -28.5840   -2.9460 H         1 UNK         0.0000
     64 H28        10.6110  -29.3130   -4.3410 H         1 UNK         0.0000
     65 H29        10.4300  -27.5450   -4.2360 H         1 UNK         0.0000
@<TRIPOS>BOND
     1    1   31 1
     2    2   35 1
     3    3   18 1
     4    3   19 1
     5    4   20 1
     6    4   30 1
     7    5   32 1
     8    5   36 1
     9    6   11 1
    10    6   12 1
    11    6   15 1
    12    7   13 1
    13    7   14 1
    14    7   17 1
    15    8   25 1
    16    8   28 1
    17    8   56 1
    18    9   23 ar
    19    9   27 ar
    20   10   33 3
    21   11   13 1
    22   11   37 1
    23   11   38 1
    24   12   14 1
    25   12   39 1
    26   12   40 1
    27   13   41 1
    28   13   42 1
    29   14   43 1
    30   14   44 1
    31   15   16 1
    32   15   45 1
    33   15   46 1
    34   16   18 1
    35   16   47 1
    36   16   48 1
    37   17   49 1
    38   17   50 1
    39   17   51 1
    40   18   52 1
    41   18   53 1
    42   19   20 ar
    43   19   22 ar
    44   20   24 ar
    45   21   23 ar
    46   21   24 ar
    47   21   25 ar
    48   22   23 ar
    49   22   54 1
    50   24   55 1
    51   25   26 ar
    52   26   27 ar
    53   26   33 1
    54   27   57 1
    55   28   29 ar
    56   28   31 ar
    57   29   32 ar
    58   29   58 1
    59   30   59 1
    60   30   60 1
    61   30   61 1
    62   31   34 ar
    63   32   35 ar
    64   34   35 ar
    65   34   62 1
    66   36   63 1
    67   36   64 1
    68   36   65 1
