@<TRIPOS>MOLECULE
10302451
   70    75     0     0     0
SMALL
NO_CHARGES

@<TRIPOS>ATOM
      1 Cl1        -6.8790  -10.7230    1.1680 Cl        1 UNK         0.0000
      2 O1         -7.0870   -6.7680    4.2930 O.3       1 UNK         0.0000
      3 O2         -5.7400   -8.0230    8.0040 O.3       1 UNK         0.0000
      4 O3         -7.6120   -2.0460    4.2050 O.3       1 UNK         0.0000
      5 O4         -3.6120   -7.1180    3.0720 O.3       1 UNK         0.0000
      6 O5         -1.7980   -8.4740    3.0190 O.3       1 UNK         0.0000
      7 N1         -5.4700    0.7160    4.8300 N.3       1 UNK         0.0000
      8 N2         -3.5850    2.8490    4.7450 N.3       1 UNK         0.0000
      9 N3         -6.3500   -7.9820    2.1890 N.pl3     1 UNK         0.0000
     10 N4         -6.2300   -4.3490    0.2730 N.ar      1 UNK         0.0000
     11 N5         -5.9670   -6.6480    0.2860 N.ar      1 UNK         0.0000
     12 C1         -5.1890    1.5190    6.0290 C.3       1 UNK         0.0000
     13 C2         -5.3000    1.5190    3.6110 C.3       1 UNK         0.0000
     14 C3         -3.7550    2.0460    5.9640 C.3       1 UNK         0.0000
     15 C4         -3.8650    2.0460    3.5450 C.3       1 UNK         0.0000
     16 C5         -6.8150    0.1300    4.8910 C.3       1 UNK         0.0000
     17 C6         -6.7740   -6.7290    5.6860 C.3       1 UNK         0.0000
     18 C7         -7.5530   -7.8260    6.4180 C.3       1 UNK         0.0000
     19 C8         -5.2730   -6.9660    5.8810 C.3       1 UNK         0.0000
     20 C9         -6.9990   -0.8470    3.7280 C.3       1 UNK         0.0000
     21 C10        -2.2410    3.4360    4.6830 C.3       1 UNK         0.0000
     22 C11        -7.1510   -7.8280    7.8950 C.3       1 UNK         0.0000
     23 C12        -4.9600   -7.0010    7.3800 C.3       1 UNK         0.0000
     24 C13        -7.0320   -5.5930    3.6160 C.ar      1 UNK         0.0000
     25 C14        -7.2950   -3.1990    3.5600 C.ar      1 UNK         0.0000
     26 C15        -6.6510   -5.5730    2.2630 C.ar      1 UNK         0.0000
     27 C16        -7.3480   -4.4110    4.2490 C.ar      1 UNK         0.0000
     28 C17        -6.5960   -4.3410    1.5650 C.ar      1 UNK         0.0000
     29 C18        -6.9290   -3.1560    2.2300 C.ar      1 UNK         0.0000
     30 C19        -6.3150   -6.7530    1.5630 C.ar      1 UNK         0.0000
     31 C20        -5.2250   -8.8160    2.1600 C.ar      1 UNK         0.0000
     32 C21        -5.9290   -5.4770   -0.3270 C.ar      1 UNK         0.0000
     33 C22        -3.9900   -8.3350    2.5820 C.ar      1 UNK         0.0000
     34 C23        -2.8780   -9.1690    2.5550 C.ar      1 UNK         0.0000
     35 C24        -5.3410  -10.1230    1.7020 C.ar      1 UNK         0.0000
     36 C25        -3.0020  -10.4730    2.0980 C.ar      1 UNK         0.0000
     37 C26        -4.2300  -10.9460    1.6740 C.ar      1 UNK         0.0000
     38 C27        -2.3440   -7.3390    3.7180 C.3       1 UNK         0.0000
     39 H1         -5.3090    0.8990    6.9180 H         1 UNK         0.0000
     40 H2         -5.8840    2.3580    6.0750 H         1 UNK         0.0000
     41 H3         -5.9960    2.3580    3.6290 H         1 UNK         0.0000
     42 H4         -5.5000    0.8990    2.7370 H         1 UNK         0.0000
     43 H5         -3.0590    1.2060    5.9450 H         1 UNK         0.0000
     44 H6         -3.5540    2.6650    6.8380 H         1 UNK         0.0000
     45 H7         -3.7450    2.6660    2.6570 H         1 UNK         0.0000
     46 H8         -3.1710    1.2070    3.5000 H         1 UNK         0.0000
     47 H9         -6.9360   -0.4040    5.8350 H         1 UNK         0.0000
     48 H10        -7.5600    0.9210    4.8230 H         1 UNK         0.0000
     49 H11        -7.0450   -5.7540    6.0950 H         1 UNK         0.0000
     50 H12        -8.6220   -7.6330    6.3310 H         1 UNK         0.0000
     51 H13        -7.3200   -8.7950    5.9760 H         1 UNK         0.0000
     52 H14        -4.9940   -7.9180    5.4280 H         1 UNK         0.0000
     53 H15        -4.7130   -6.1590    5.4110 H         1 UNK         0.0000
     54 H16        -7.6340   -0.3910    2.9690 H         1 UNK         0.0000
     55 H17        -6.0270   -1.0820    3.2940 H         1 UNK         0.0000
     56 H18        -1.9020    3.4610    3.6480 H         1 UNK         0.0000
     57 H19        -2.2680    4.4510    5.0800 H         1 UNK         0.0000
     58 H20        -1.5530    2.8330    5.2760 H         1 UNK         0.0000
     59 H21        -7.4230   -6.8720    8.3470 H         1 UNK         0.0000
     60 H22        -7.6710   -8.6340    8.4130 H         1 UNK         0.0000
     61 H23        -5.2020   -6.0360    7.8230 H         1 UNK         0.0000
     62 H24        -3.9000   -7.2130    7.5240 H         1 UNK         0.0000
     63 H25        -7.6410   -4.4230    5.2890 H         1 UNK         0.0000
     64 H26        -6.8950   -2.2130    1.7060 H         1 UNK         0.0000
     65 H27        -7.1550   -8.2700    2.6480 H         1 UNK         0.0000
     66 H28        -5.6380   -5.4470   -1.3660 H         1 UNK         0.0000
     67 H29        -2.1380  -11.1190    2.0720 H         1 UNK         0.0000
     68 H30        -4.3220  -11.9620    1.3190 H         1 UNK         0.0000
     69 H31        -2.4880   -7.5720    4.7730 H         1 UNK         0.0000
     70 H32        -1.6960   -6.4710    3.6030 H         1 UNK         0.0000
@<TRIPOS>BOND
     1    1   35 1
     2    2   17 1
     3    2   24 1
     4    3   22 1
     5    3   23 1
     6    4   20 1
     7    4   25 1
     8    5   33 1
     9    5   38 1
    10    6   34 1
    11    6   38 1
    12    7   12 1
    13    7   13 1
    14    7   16 1
    15    8   14 1
    16    8   15 1
    17    8   21 1
    18    9   30 1
    19    9   31 1
    20    9   65 1
    21   10   28 ar
    22   10   32 ar
    23   11   30 ar
    24   11   32 ar
    25   12   14 1
    26   12   39 1
    27   12   40 1
    28   13   15 1
    29   13   41 1
    30   13   42 1
    31   14   43 1
    32   14   44 1
    33   15   45 1
    34   15   46 1
    35   16   20 1
    36   16   47 1
    37   16   48 1
    38   17   18 1
    39   17   19 1
    40   17   49 1
    41   18   22 1
    42   18   50 1
    43   18   51 1
    44   19   23 1
    45   19   52 1
    46   19   53 1
    47   20   54 1
    48   20   55 1
    49   21   56 1
    50   21   57 1
    51   21   58 1
    52   22   59 1
    53   22   60 1
    54   23   61 1
    55   23   62 1
    56   24   26 ar
    57   24   27 ar
    58   25   27 ar
    59   25   29 ar
    60   26   28 ar
    61   26   30 ar
    62   27   63 1
    63   28   29 ar
    64   29   64 1
    65   31   33 ar
    66   31   35 ar
    67   32   66 1
    68   33   34 ar
    69   34   36 ar
    70   35   37 ar
    71   36   37 ar
    72   36   67 1
    73   37   68 1
    74   38   69 1
    75   38   70 1
