@<TRIPOS>MOLECULE
10302451
   70    75     0     0     0
SMALL
NO_CHARGES

@<TRIPOS>ATOM
      1 Cl1        -6.8520  -10.5960    1.1010 Cl        1 UNK         0.0000
      2 O1         -7.1120   -6.6920    4.3170 O.3       1 UNK         0.0000
      3 O2         -5.6210   -7.8540    8.0040 O.3       1 UNK         0.0000
      4 O3         -7.7280   -1.9830    4.1370 O.3       1 UNK         0.0000
      5 O4         -3.5260   -7.1610    3.2070 O.3       1 UNK         0.0000
      6 O5         -1.7410   -8.5520    3.1010 O.3       1 UNK         0.0000
      7 N1        -10.3260   -1.5280    2.1360 N.3       1 UNK         0.0000
      8 N2        -11.9570   -1.8150   -0.1800 N.3       1 UNK         0.0000
      9 N3         -6.2740   -7.9210    2.2610 N.pl3     1 UNK         0.0000
     10 N4         -6.1570   -4.3150    0.2950 N.ar      1 UNK         0.0000
     11 N5         -5.8480   -6.6080    0.3520 N.ar      1 UNK         0.0000
     12 C1         -9.7710   -1.3030    0.7940 C.3       1 UNK         0.0000
     13 C2        -11.7540   -1.1830    2.1770 C.3       1 UNK         0.0000
     14 C3        -10.5290   -2.1610   -0.2200 C.3       1 UNK         0.0000
     15 C4        -12.5130   -2.0410    1.1620 C.3       1 UNK         0.0000
     16 C5         -9.5740   -0.7770    3.1500 C.3       1 UNK         0.0000
     17 C6         -6.7880   -6.6360    5.7080 C.3       1 UNK         0.0000
     18 C7         -7.4610   -7.8020    6.4380 C.3       1 UNK         0.0000
     19 C8         -5.2700   -6.7440    5.8850 C.3       1 UNK         0.0000
     20 C9         -9.1280   -1.7280    4.2630 C.3       1 UNK         0.0000
     21 C10       -12.7100   -2.5660   -1.1930 C.3       1 UNK         0.0000
     22 C11        -7.0450   -7.7800    7.9120 C.3       1 UNK         0.0000
     23 C12        -4.9390   -6.7630    7.3800 C.3       1 UNK         0.0000
     24 C13        -7.0560   -5.5250    3.6250 C.ar      1 UNK         0.0000
     25 C14        -7.3650   -3.1390    3.5230 C.ar      1 UNK         0.0000
     26 C15        -6.6260   -5.5180    2.2870 C.ar      1 UNK         0.0000
     27 C16        -7.4190   -4.3410    4.2280 C.ar      1 UNK         0.0000
     28 C17        -6.5700   -4.2960    1.5720 C.ar      1 UNK         0.0000
     29 C18        -6.9500   -3.1080    2.2060 C.ar      1 UNK         0.0000
     30 C19        -6.2410   -6.7010    1.6180 C.ar      1 UNK         0.0000
     31 C20        -5.1670   -8.7760    2.1990 C.ar      1 UNK         0.0000
     32 C21        -5.8120   -5.4450   -0.2760 C.ar      1 UNK         0.0000
     33 C22        -3.9250   -8.3440    2.6550 C.ar      1 UNK         0.0000
     34 C23        -2.8320   -9.2000    2.5950 C.ar      1 UNK         0.0000
     35 C24        -5.3060  -10.0570    1.6760 C.ar      1 UNK         0.0000
     36 C25        -2.9790  -10.4770    2.0720 C.ar      1 UNK         0.0000
     37 C26        -4.2130  -10.9010    1.6160 C.ar      1 UNK         0.0000
     38 C27        -2.2690   -7.4410    3.8510 C.3       1 UNK         0.0000
     39 H1         -8.7160   -1.5780    0.7870 H         1 UNK         0.0000
     40 H2         -9.8740   -0.2500    0.5300 H         1 UNK         0.0000
     41 H3        -11.8800   -0.1290    1.9280 H         1 UNK         0.0000
     42 H4        -12.1450   -1.3700    3.1760 H         1 UNK         0.0000
     43 H5        -10.4030   -3.2150    0.0290 H         1 UNK         0.0000
     44 H6        -10.1380   -1.9740   -1.2200 H         1 UNK         0.0000
     45 H7        -13.5680   -1.7660    1.1700 H         1 UNK         0.0000
     46 H8        -12.4100   -3.0940    1.4270 H         1 UNK         0.0000
     47 H9         -8.6980   -0.3210    2.6890 H         1 UNK         0.0000
     48 H10       -10.2100    0.0020    3.5710 H         1 UNK         0.0000
     49 H11        -7.1380   -5.6920    6.1270 H         1 UNK         0.0000
     50 H12        -8.5440   -7.7010    6.3640 H         1 UNK         0.0000
     51 H13        -7.1500   -8.7430    5.9860 H         1 UNK         0.0000
     52 H14        -4.9150   -7.6650    5.4210 H         1 UNK         0.0000
     53 H15        -4.7870   -5.8880    5.4160 H         1 UNK         0.0000
     54 H16        -9.3290   -1.2730    5.2320 H         1 UNK         0.0000
     55 H17        -9.6780   -2.6650    4.1810 H         1 UNK         0.0000
     56 H18       -13.5150   -3.1200   -0.7120 H         1 UNK         0.0000
     57 H19       -13.1310   -1.8720   -1.9200 H         1 UNK         0.0000
     58 H20       -12.0420   -3.2620   -1.7010 H         1 UNK         0.0000
     59 H21        -7.3930   -6.8550    8.3740 H         1 UNK         0.0000
     60 H22        -7.4870   -8.6320    8.4270 H         1 UNK         0.0000
     61 H23        -5.2590   -5.8260    7.8350 H         1 UNK         0.0000
     62 H24        -3.8630   -6.8840    7.5120 H         1 UNK         0.0000
     63 H25        -7.7490   -4.3440    5.2560 H         1 UNK         0.0000
     64 H26        -6.9170   -2.1720    1.6690 H         1 UNK         0.0000
     65 H27        -7.0660   -8.1870    2.7550 H         1 UNK         0.0000
     66 H28        -5.4830   -5.4240   -1.3050 H         1 UNK         0.0000
     67 H29        -2.1290  -11.1390    2.0210 H         1 UNK         0.0000
     68 H30        -4.3230  -11.8960    1.2100 H         1 UNK         0.0000
     69 H31        -2.4270   -7.7230    4.8920 H         1 UNK         0.0000
     70 H32        -1.6020   -6.5820    3.7840 H         1 UNK         0.0000
@<TRIPOS>BOND
     1    1   35 1
     2    2   17 1
     3    2   24 1
     4    3   22 1
     5    3   23 1
     6    4   20 1
     7    4   25 1
     8    5   33 1
     9    5   38 1
    10    6   34 1
    11    6   38 1
    12    7   12 1
    13    7   13 1
    14    7   16 1
    15    8   14 1
    16    8   15 1
    17    8   21 1
    18    9   30 1
    19    9   31 1
    20    9   65 1
    21   10   28 ar
    22   10   32 ar
    23   11   30 ar
    24   11   32 ar
    25   12   14 1
    26   12   39 1
    27   12   40 1
    28   13   15 1
    29   13   41 1
    30   13   42 1
    31   14   43 1
    32   14   44 1
    33   15   45 1
    34   15   46 1
    35   16   20 1
    36   16   47 1
    37   16   48 1
    38   17   18 1
    39   17   19 1
    40   17   49 1
    41   18   22 1
    42   18   50 1
    43   18   51 1
    44   19   23 1
    45   19   52 1
    46   19   53 1
    47   20   54 1
    48   20   55 1
    49   21   56 1
    50   21   57 1
    51   21   58 1
    52   22   59 1
    53   22   60 1
    54   23   61 1
    55   23   62 1
    56   24   26 ar
    57   24   27 ar
    58   25   27 ar
    59   25   29 ar
    60   26   28 ar
    61   26   30 ar
    62   27   63 1
    63   28   29 ar
    64   29   64 1
    65   31   33 ar
    66   31   35 ar
    67   32   66 1
    68   33   34 ar
    69   34   36 ar
    70   35   37 ar
    71   36   37 ar
    72   36   67 1
    73   37   68 1
    74   38   69 1
    75   38   70 1
