@<TRIPOS>MOLECULE
10302451
   70    75     0     0     0
SMALL
NO_CHARGES

@<TRIPOS>ATOM
      1 Cl1        11.0620   -7.5200   -8.0790 Cl        1 UNK         0.0000
      2 O1          6.7910   -5.4160   -7.7910 O.3       1 UNK         0.0000
      3 O2          5.9540   -4.3440   -3.8780 O.3       1 UNK         0.0000
      4 O3          2.8440   -7.3520   -9.5970 O.3       1 UNK         0.0000
      5 O4          9.6900   -3.0720  -10.4510 O.3       1 UNK         0.0000
      6 O5         11.8210   -2.4140  -10.8460 O.3       1 UNK         0.0000
      7 N1          2.0870  -10.6820   -8.3970 N.3       1 UNK         0.0000
      8 N2         -0.4680  -11.8960   -8.0740 N.3       1 UNK         0.0000
      9 N3          8.9810   -5.6360   -9.0550 N.pl3     1 UNK         0.0000
     10 N4          6.9660   -7.7480  -11.9470 N.ar      1 UNK         0.0000
     11 N5          8.9050   -6.8170  -11.0920 N.ar      1 UNK         0.0000
     12 C1          1.4180  -11.3340   -9.5300 C.3       1 UNK         0.0000
     13 C2          1.1030  -10.1220   -7.4590 C.3       1 UNK         0.0000
     14 C3          0.5160  -12.4560   -9.0110 C.3       1 UNK         0.0000
     15 C4          0.2020  -11.2430   -6.9390 C.3       1 UNK         0.0000
     16 C5          3.0210   -9.6460   -8.8600 C.3       1 UNK         0.0000
     17 C6          6.1890   -5.4440   -6.4960 C.3       1 UNK         0.0000
     18 C7          7.2720   -5.6440   -5.4310 C.3       1 UNK         0.0000
     19 C8          5.4720   -4.1150   -6.2360 C.3       1 UNK         0.0000
     20 C9          2.4290   -8.2640   -8.5780 C.3       1 UNK         0.0000
     21 C10        -1.4010  -12.9300   -7.6100 C.3       1 UNK         0.0000
     22 C11         6.6280   -5.5930   -4.0430 C.3       1 UNK         0.0000
     23 C12         4.8980   -4.1230   -4.8160 C.3       1 UNK         0.0000
     24 C13         6.1710   -6.1190   -8.7730 C.ar      1 UNK         0.0000
     25 C14         4.1760   -7.1040   -9.6980 C.ar      1 UNK         0.0000
     26 C15         6.9020   -6.5830   -9.8800 C.ar      1 UNK         0.0000
     27 C16         4.8210   -6.3820   -8.6930 C.ar      1 UNK         0.0000
     28 C17         6.2460   -7.3150  -10.9000 C.ar      1 UNK         0.0000
     29 C18         4.8750   -7.5740  -10.7920 C.ar      1 UNK         0.0000
     30 C19         8.2870   -6.3430  -10.0160 C.ar      1 UNK         0.0000
     31 C20        10.2960   -5.2240   -9.3020 C.ar      1 UNK         0.0000
     32 C21         8.2520   -7.4960  -12.0210 C.ar      1 UNK         0.0000
     33 C22        10.5380   -4.0220   -9.9600 C.ar      1 UNK         0.0000
     34 C23        11.8470   -3.6160  -10.1980 C.ar      1 UNK         0.0000
     35 C24        11.3620   -6.0180   -8.8940 C.ar      1 UNK         0.0000
     36 C25        12.9050   -4.4140   -9.7870 C.ar      1 UNK         0.0000
     37 C26        12.6610   -5.6100   -9.1380 C.ar      1 UNK         0.0000
     38 C27        10.4950   -1.8930  -10.6340 C.3       1 UNK         0.0000
     39 H1          2.1670  -11.7520  -10.2030 H         1 UNK         0.0000
     40 H2          0.8150  -10.6020  -10.0670 H         1 UNK         0.0000
     41 H3          0.4970   -9.3750   -7.9720 H         1 UNK         0.0000
     42 H4          1.6230   -9.6560   -6.6220 H         1 UNK         0.0000
     43 H5          1.1240  -13.2020   -8.4970 H         1 UNK         0.0000
     44 H6         -0.0030  -12.9220   -9.8480 H         1 UNK         0.0000
     45 H7         -0.5480  -10.8260   -6.2660 H         1 UNK         0.0000
     46 H8          0.8050  -11.9760   -6.4020 H         1 UNK         0.0000
     47 H9          3.9690   -9.7500   -8.3320 H         1 UNK         0.0000
     48 H10         3.1860   -9.7590   -9.9310 H         1 UNK         0.0000
     49 H11         5.4700   -6.2630   -6.4440 H         1 UNK         0.0000
     50 H12         7.7500   -6.6130   -5.5760 H         1 UNK         0.0000
     51 H13         8.0170   -4.8540   -5.5170 H         1 UNK         0.0000
     52 H14         6.1820   -3.2940   -6.3370 H         1 UNK         0.0000
     53 H15         4.6630   -3.9910   -6.9550 H         1 UNK         0.0000
     54 H16         1.3420   -8.3280   -8.5700 H         1 UNK         0.0000
     55 H17         2.7800   -7.9100   -7.6090 H         1 UNK         0.0000
     56 H18        -1.6760  -12.7340   -6.5740 H         1 UNK         0.0000
     57 H19        -2.2970  -12.9170   -8.2310 H         1 UNK         0.0000
     58 H20        -0.9250  -13.9080   -7.6810 H         1 UNK         0.0000
     59 H21         5.9120   -6.4100   -3.9440 H         1 UNK         0.0000
     60 H22         7.4000   -5.6930   -3.2800 H         1 UNK         0.0000
     61 H23         4.1600   -4.9200   -4.7270 H         1 UNK         0.0000
     62 H24         4.4240   -3.1630   -4.6100 H         1 UNK         0.0000
     63 H25         4.2560   -6.0260   -7.8440 H         1 UNK         0.0000
     64 H26         4.3660   -8.1350  -11.5610 H         1 UNK         0.0000
     65 H27         8.5580   -5.4270   -8.2070 H         1 UNK         0.0000
     66 H28         8.8010   -7.8580  -12.8770 H         1 UNK         0.0000
     67 H29        13.9200   -4.1010   -9.9760 H         1 UNK         0.0000
     68 H30        13.4870   -6.2280   -8.8200 H         1 UNK         0.0000
     69 H31        10.4680   -1.2680   -9.7420 H         1 UNK         0.0000
     70 H32        10.1610   -1.3300  -11.5060 H         1 UNK         0.0000
@<TRIPOS>BOND
     1    1   35 1
     2    2   17 1
     3    2   24 1
     4    3   22 1
     5    3   23 1
     6    4   20 1
     7    4   25 1
     8    5   33 1
     9    5   38 1
    10    6   34 1
    11    6   38 1
    12    7   12 1
    13    7   13 1
    14    7   16 1
    15    8   14 1
    16    8   15 1
    17    8   21 1
    18    9   30 1
    19    9   31 1
    20    9   65 1
    21   10   28 ar
    22   10   32 ar
    23   11   30 ar
    24   11   32 ar
    25   12   14 1
    26   12   39 1
    27   12   40 1
    28   13   15 1
    29   13   41 1
    30   13   42 1
    31   14   43 1
    32   14   44 1
    33   15   45 1
    34   15   46 1
    35   16   20 1
    36   16   47 1
    37   16   48 1
    38   17   18 1
    39   17   19 1
    40   17   49 1
    41   18   22 1
    42   18   50 1
    43   18   51 1
    44   19   23 1
    45   19   52 1
    46   19   53 1
    47   20   54 1
    48   20   55 1
    49   21   56 1
    50   21   57 1
    51   21   58 1
    52   22   59 1
    53   22   60 1
    54   23   61 1
    55   23   62 1
    56   24   26 ar
    57   24   27 ar
    58   25   27 ar
    59   25   29 ar
    60   26   28 ar
    61   26   30 ar
    62   27   63 1
    63   28   29 ar
    64   29   64 1
    65   31   33 ar
    66   31   35 ar
    67   32   66 1
    68   33   34 ar
    69   34   36 ar
    70   35   37 ar
    71   36   37 ar
    72   36   67 1
    73   37   68 1
    74   38   69 1
    75   38   70 1
