@<TRIPOS>MOLECULE
10302451
   70    75     0     0     0
SMALL
NO_CHARGES

@<TRIPOS>ATOM
      1 Cl1         4.7520   -6.0190  -13.4370 Cl        1 UNK         0.0000
      2 O1          4.1400   -7.2160  -10.4920 O.3       1 UNK         0.0000
      3 O2          2.3400  -10.4940   -8.7100 O.3       1 UNK         0.0000
      4 O3          5.3270   -4.2880   -6.9420 O.3       1 UNK         0.0000
      5 O4          7.4560  -10.4870  -13.2740 O.3       1 UNK         0.0000
      6 O5          7.7480  -10.6020  -15.5170 O.3       1 UNK         0.0000
      7 N1          6.1400   -4.1740   -4.0190 N.3       1 UNK         0.0000
      8 N2          6.3700   -2.5870   -1.6660 N.3       1 UNK         0.0000
      9 N3          5.9660   -8.2620  -11.9100 N.pl3     1 UNK         0.0000
     10 N4          8.7310   -6.2660   -9.6180 N.ar      1 UNK         0.0000
     11 N5          8.1840   -7.6960  -11.3550 N.ar      1 UNK         0.0000
     12 C1          7.0470   -4.5690   -2.9330 C.3       1 UNK         0.0000
     13 C2          4.9810   -3.4400   -3.4930 C.3       1 UNK         0.0000
     14 C3          7.5300   -3.3200   -2.1940 C.3       1 UNK         0.0000
     15 C4          5.4630   -2.1900   -2.7530 C.3       1 UNK         0.0000
     16 C5          5.7130   -5.3410   -4.8010 C.3       1 UNK         0.0000
     17 C6          3.1780   -7.9850   -9.7680 C.3       1 UNK         0.0000
     18 C7          2.6370   -9.1030  -10.6640 C.3       1 UNK         0.0000
     19 C8          3.8420   -8.6080   -8.5360 C.3       1 UNK         0.0000
     20 C9          4.6710   -4.9100   -5.8350 C.3       1 UNK         0.0000
     21 C10         6.7960   -1.4190   -0.8850 C.3       1 UNK         0.0000
     22 C11         1.6670   -9.9700   -9.8560 C.3       1 UNK         0.0000
     23 C12         2.8250   -9.4940   -7.8110 C.3       1 UNK         0.0000
     24 C13         5.0920   -6.5780   -9.7640 C.ar      1 UNK         0.0000
     25 C14         5.7050   -5.0950   -7.9670 C.ar      1 UNK         0.0000
     26 C15         6.4520   -6.7530  -10.0700 C.ar      1 UNK         0.0000
     27 C16         4.7330   -5.7550   -8.7190 C.ar      1 UNK         0.0000
     28 C17         7.4390   -6.0830   -9.3050 C.ar      1 UNK         0.0000
     29 C18         7.0470   -5.2480   -8.2530 C.ar      1 UNK         0.0000
     30 C19         6.8800   -7.5850  -11.1300 C.ar      1 UNK         0.0000
     31 C20         6.1500   -8.3390  -13.2970 C.ar      1 UNK         0.0000
     32 C21         9.0700   -7.0510  -10.6140 C.ar      1 UNK         0.0000
     33 C22         6.8580   -9.4030  -13.8480 C.ar      1 UNK         0.0000
     34 C23         7.0330   -9.4750  -15.2260 C.ar      1 UNK         0.0000
     35 C24         5.6300   -7.3500  -14.1230 C.ar      1 UNK         0.0000
     36 C25         6.5100   -8.4840  -16.0430 C.ar      1 UNK         0.0000
     37 C26         5.8110   -7.4270  -15.4920 C.ar      1 UNK         0.0000
     38 C27         7.6530  -11.4310  -14.3430 C.3       1 UNK         0.0000
     39 H1          7.9040   -5.0990   -3.3500 H         1 UNK         0.0000
     40 H2          6.5190   -5.2220   -2.2380 H         1 UNK         0.0000
     41 H3          4.4280   -4.0800   -2.8040 H         1 UNK         0.0000
     42 H4          4.3310   -3.1460   -4.3170 H         1 UNK         0.0000
     43 H5          8.0820   -2.6800   -2.8830 H         1 UNK         0.0000
     44 H6          8.1800   -3.6130   -1.3690 H         1 UNK         0.0000
     45 H7          4.6060   -1.6600   -2.3370 H         1 UNK         0.0000
     46 H8          5.9920   -1.5370   -3.4480 H         1 UNK         0.0000
     47 H9          6.5750   -5.7710   -5.3130 H         1 UNK         0.0000
     48 H10         5.2780   -6.0850   -4.1350 H         1 UNK         0.0000
     49 H11         2.3560   -7.3400   -9.4530 H         1 UNK         0.0000
     50 H12         2.1140   -8.6670  -11.5150 H         1 UNK         0.0000
     51 H13         3.4640   -9.7180  -11.0190 H         1 UNK         0.0000
     52 H14         4.6940   -9.2120   -8.8490 H         1 UNK         0.0000
     53 H15         4.1800   -7.8180   -7.8660 H         1 UNK         0.0000
     54 H16         4.1210   -5.7830   -6.1830 H         1 UNK         0.0000
     55 H17         3.9780   -4.2030   -5.3790 H         1 UNK         0.0000
     56 H18         6.2810   -1.4160    0.0750 H         1 UNK         0.0000
     57 H19         7.8720   -1.4660   -0.7180 H         1 UNK         0.0000
     58 H20         6.5540   -0.5070   -1.4310 H         1 UNK         0.0000
     59 H21         0.8190   -9.3640   -9.5360 H         1 UNK         0.0000
     60 H22         1.3110  -10.7930  -10.4760 H         1 UNK         0.0000
     61 H23         1.9930   -8.8820   -7.4640 H         1 UNK         0.0000
     62 H24         3.3050   -9.9740   -6.9570 H         1 UNK         0.0000
     63 H25         3.6880   -5.6190   -8.4810 H         1 UNK         0.0000
     64 H26         7.7900   -4.7290   -7.6670 H         1 UNK         0.0000
     65 H27         5.1950   -8.6840  -11.4990 H         1 UNK         0.0000
     66 H28        10.1190   -7.1770  -10.8380 H         1 UNK         0.0000
     67 H29         6.6500   -8.5380  -17.1120 H         1 UNK         0.0000
     68 H30         5.4060   -6.6570  -16.1320 H         1 UNK         0.0000
     69 H31         6.8010  -12.1060  -14.4200 H         1 UNK         0.0000
     70 H32         8.5740  -11.9930  -14.1950 H         1 UNK         0.0000
@<TRIPOS>BOND
     1    1   35 1
     2    2   17 1
     3    2   24 1
     4    3   22 1
     5    3   23 1
     6    4   20 1
     7    4   25 1
     8    5   33 1
     9    5   38 1
    10    6   34 1
    11    6   38 1
    12    7   12 1
    13    7   13 1
    14    7   16 1
    15    8   14 1
    16    8   15 1
    17    8   21 1
    18    9   30 1
    19    9   31 1
    20    9   65 1
    21   10   28 ar
    22   10   32 ar
    23   11   30 ar
    24   11   32 ar
    25   12   14 1
    26   12   39 1
    27   12   40 1
    28   13   15 1
    29   13   41 1
    30   13   42 1
    31   14   43 1
    32   14   44 1
    33   15   45 1
    34   15   46 1
    35   16   20 1
    36   16   47 1
    37   16   48 1
    38   17   18 1
    39   17   19 1
    40   17   49 1
    41   18   22 1
    42   18   50 1
    43   18   51 1
    44   19   23 1
    45   19   52 1
    46   19   53 1
    47   20   54 1
    48   20   55 1
    49   21   56 1
    50   21   57 1
    51   21   58 1
    52   22   59 1
    53   22   60 1
    54   23   61 1
    55   23   62 1
    56   24   26 ar
    57   24   27 ar
    58   25   27 ar
    59   25   29 ar
    60   26   28 ar
    61   26   30 ar
    62   27   63 1
    63   28   29 ar
    64   29   64 1
    65   31   33 ar
    66   31   35 ar
    67   32   66 1
    68   33   34 ar
    69   34   36 ar
    70   35   37 ar
    71   36   37 ar
    72   36   67 1
    73   37   68 1
    74   38   69 1
    75   38   70 1
