@<TRIPOS>MOLECULE
10302451
   70    75     0     0     0
SMALL
NO_CHARGES

@<TRIPOS>ATOM
      1 Cl1         7.2790  -10.3760  -13.6930 Cl        1 UNK         0.0000
      2 O1          8.6440   -6.6380  -10.0630 O.3       1 UNK         0.0000
      3 O2         12.6030   -5.8940   -9.0940 O.3       1 UNK         0.0000
      4 O3          5.9490   -4.5370   -6.7620 O.3       1 UNK         0.0000
      5 O4          8.2150   -5.3010  -12.8740 O.3       1 UNK         0.0000
      6 O5          8.5610   -4.8280  -15.0620 O.3       1 UNK         0.0000
      7 N1          6.2460   -4.0570   -3.7870 N.3       1 UNK         0.0000
      8 N2          6.4760   -2.3120   -1.5490 N.3       1 UNK         0.0000
      9 N3          7.5420   -8.0490  -11.8620 N.pl3     1 UNK         0.0000
     10 N4          3.9080   -7.1890  -10.1490 N.ar      1 UNK         0.0000
     11 N5          5.1950   -8.2250  -11.7700 N.ar      1 UNK         0.0000
     12 C1          7.2490   -4.3050   -2.7420 C.3       1 UNK         0.0000
     13 C2          5.0590   -3.3930   -3.2280 C.3       1 UNK         0.0000
     14 C3          7.6620   -2.9760   -2.1090 C.3       1 UNK         0.0000
     15 C4          5.4730   -2.0640   -2.5940 C.3       1 UNK         0.0000
     16 C5          5.8770   -5.3040   -4.4710 C.3       1 UNK         0.0000
     17 C6          9.7760   -6.1310   -9.3530 C.3       1 UNK         0.0000
     18 C7         10.6470   -7.2970   -8.8780 C.3       1 UNK         0.0000
     19 C8         10.6020   -5.2340  -10.2800 C.3       1 UNK         0.0000
     20 C9          5.0670   -4.9770   -5.7270 C.3       1 UNK         0.0000
     21 C10         6.8430   -1.0660   -0.8650 C.3       1 UNK         0.0000
     22 C11        11.8970   -6.7430   -8.1880 C.3       1 UNK         0.0000
     23 C12        11.8530   -4.7590   -9.5350 C.3       1 UNK         0.0000
     24 C13         7.4200   -6.3830   -9.5340 C.ar      1 UNK         0.0000
     25 C14         6.0440   -5.3230   -7.8650 C.ar      1 UNK         0.0000
     26 C15         6.2670   -6.9280  -10.1250 C.ar      1 UNK         0.0000
     27 C16         7.2990   -5.5890   -8.4150 C.ar      1 UNK         0.0000
     28 C17         4.9940   -6.6560   -9.5660 C.ar      1 UNK         0.0000
     29 C18         4.8990   -5.8510   -8.4260 C.ar      1 UNK         0.0000
     30 C19         6.3310   -7.7490  -11.2730 C.ar      1 UNK         0.0000
     31 C20         7.7580   -7.7500  -13.2130 C.ar      1 UNK         0.0000
     32 C21         4.0270   -7.9450  -11.2150 C.ar      1 UNK         0.0000
     33 C22         8.0600   -6.4470  -13.5990 C.ar      1 UNK         0.0000
     34 C23         8.2780   -6.1580  -14.9420 C.ar      1 UNK         0.0000
     35 C24         7.6640   -8.7530  -14.1710 C.ar      1 UNK         0.0000
     36 C25         8.1830   -7.1650  -15.8910 C.ar      1 UNK         0.0000
     37 C26         7.8770   -8.4560  -15.5050 C.ar      1 UNK         0.0000
     38 C27         8.9200   -4.3910  -13.7370 C.3       1 UNK         0.0000
     39 H1          8.1220   -4.7860   -3.1840 H         1 UNK         0.0000
     40 H2          6.8240   -4.9560   -1.9780 H         1 UNK         0.0000
     41 H3          4.6090   -4.0340   -2.4690 H         1 UNK         0.0000
     42 H4          4.3370   -3.2090   -4.0230 H         1 UNK         0.0000
     43 H5          8.1120   -2.3350   -2.8690 H         1 UNK         0.0000
     44 H6          8.3840   -3.1600   -1.3140 H         1 UNK         0.0000
     45 H7          4.5990   -1.5830   -2.1530 H         1 UNK         0.0000
     46 H8          5.8980   -1.4130   -3.3590 H         1 UNK         0.0000
     47 H9          6.7820   -5.8440   -4.7540 H         1 UNK         0.0000
     48 H10         5.2790   -5.9220   -3.8030 H         1 UNK         0.0000
     49 H11         9.4380   -5.5540   -8.4910 H         1 UNK         0.0000
     50 H12        10.0840   -7.9100   -8.1740 H         1 UNK         0.0000
     51 H13        10.9430   -7.9040   -9.7340 H         1 UNK         0.0000
     52 H14        10.8970   -5.7990  -11.1640 H         1 UNK         0.0000
     53 H15        10.0070   -4.3720  -10.5780 H         1 UNK         0.0000
     54 H16         4.5340   -5.8670   -6.0580 H         1 UNK         0.0000
     55 H17         4.3490   -4.1880   -5.5010 H         1 UNK         0.0000
     56 H18         5.9600   -0.6360   -0.3930 H         1 UNK         0.0000
     57 H19         7.5940   -1.2770   -0.1040 H         1 UNK         0.0000
     58 H20         7.2490   -0.3590   -1.5890 H         1 UNK         0.0000
     59 H21        11.6020   -6.1700   -7.3070 H         1 UNK         0.0000
     60 H22        12.5420   -7.5680   -7.8850 H         1 UNK         0.0000
     61 H23        11.5580   -4.1610   -8.6730 H         1 UNK         0.0000
     62 H24        12.4670   -4.1560  -10.2040 H         1 UNK         0.0000
     63 H25         8.1830   -5.1680   -7.9590 H         1 UNK         0.0000
     64 H26         3.9340   -5.6410   -7.9890 H         1 UNK         0.0000
     65 H27         8.2440   -8.4700  -11.3410 H         1 UNK         0.0000
     66 H28         3.1330   -8.3560  -11.6590 H         1 UNK         0.0000
     67 H29         8.3470   -6.9390  -16.9340 H         1 UNK         0.0000
     68 H30         7.8040   -9.2370  -16.2480 H         1 UNK         0.0000
     69 H31         9.9960   -4.4750  -13.5860 H         1 UNK         0.0000
     70 H32         8.5900   -3.3660  -13.5690 H         1 UNK         0.0000
@<TRIPOS>BOND
     1    1   35 1
     2    2   17 1
     3    2   24 1
     4    3   22 1
     5    3   23 1
     6    4   20 1
     7    4   25 1
     8    5   33 1
     9    5   38 1
    10    6   34 1
    11    6   38 1
    12    7   12 1
    13    7   13 1
    14    7   16 1
    15    8   14 1
    16    8   15 1
    17    8   21 1
    18    9   30 1
    19    9   31 1
    20    9   65 1
    21   10   28 ar
    22   10   32 ar
    23   11   30 ar
    24   11   32 ar
    25   12   14 1
    26   12   39 1
    27   12   40 1
    28   13   15 1
    29   13   41 1
    30   13   42 1
    31   14   43 1
    32   14   44 1
    33   15   45 1
    34   15   46 1
    35   16   20 1
    36   16   47 1
    37   16   48 1
    38   17   18 1
    39   17   19 1
    40   17   49 1
    41   18   22 1
    42   18   50 1
    43   18   51 1
    44   19   23 1
    45   19   52 1
    46   19   53 1
    47   20   54 1
    48   20   55 1
    49   21   56 1
    50   21   57 1
    51   21   58 1
    52   22   59 1
    53   22   60 1
    54   23   61 1
    55   23   62 1
    56   24   26 ar
    57   24   27 ar
    58   25   27 ar
    59   25   29 ar
    60   26   28 ar
    61   26   30 ar
    62   27   63 1
    63   28   29 ar
    64   29   64 1
    65   31   33 ar
    66   31   35 ar
    67   32   66 1
    68   33   34 ar
    69   34   36 ar
    70   35   37 ar
    71   36   37 ar
    72   36   67 1
    73   37   68 1
    74   38   69 1
    75   38   70 1
