@<TRIPOS>MOLECULE
10302451
   70    75     0     0     0
SMALL
NO_CHARGES

@<TRIPOS>ATOM
      1 Cl1        10.7460   -1.4790  -10.7110 Cl        1 UNK         0.0000
      2 O1          7.1250   -4.9340   -8.7280 O.3       1 UNK         0.0000
      3 O2          5.7030   -4.4880   -4.8630 O.3       1 UNK         0.0000
      4 O3          3.8640   -7.5430  -10.9940 O.3       1 UNK         0.0000
      5 O4          9.9090   -6.3130   -8.9150 O.3       1 UNK         0.0000
      6 O5         12.0910   -6.7170   -8.4650 O.3       1 UNK         0.0000
      7 N1          3.1090   -8.9850   -7.6940 N.3       1 UNK         0.0000
      8 N2          1.7840   -7.9890   -5.3780 N.3       1 UNK         0.0000
      9 N3          8.9090   -3.7250  -10.0690 N.pl3     1 UNK         0.0000
     10 N4          7.2210   -5.2650  -13.4850 N.ar      1 UNK         0.0000
     11 N5          8.8230   -3.9870  -12.4090 N.ar      1 UNK         0.0000
     12 C1          1.6720   -9.2190   -7.4920 C.3       1 UNK         0.0000
     13 C2          3.5240   -7.7160   -7.0790 C.3       1 UNK         0.0000
     14 C3          1.3690   -9.2580   -5.9930 C.3       1 UNK         0.0000
     15 C4          3.2210   -7.7550   -5.5800 C.3       1 UNK         0.0000
     16 C5          3.4520   -9.0150   -9.1220 C.3       1 UNK         0.0000
     17 C6          6.4060   -5.2150   -7.5260 C.3       1 UNK         0.0000
     18 C7          7.3900   -5.3550   -6.3610 C.3       1 UNK         0.0000
     19 C8          5.4370   -4.0660   -7.2280 C.3       1 UNK         0.0000
     20 C9          3.1860   -7.6410   -9.7400 C.3       1 UNK         0.0000
     21 C10         1.4410   -7.9580   -3.9510 C.3       1 UNK         0.0000
     22 C11         6.6060   -5.5760   -5.0640 C.3       1 UNK         0.0000
     23 C12         4.7290   -4.3380   -5.8980 C.3       1 UNK         0.0000
     24 C13         6.6040   -5.4170   -9.8850 C.ar      1 UNK         0.0000
     25 C14         4.9560   -6.7380  -11.0430 C.ar      1 UNK         0.0000
     26 C15         7.1920   -5.0860  -11.1180 C.ar      1 UNK         0.0000
     27 C16         5.4960   -6.2360   -9.8590 C.ar      1 UNK         0.0000
     28 C17         6.6420   -5.5960  -12.3200 C.ar      1 UNK         0.0000
     29 C18         5.5200   -6.4300  -12.2650 C.ar      1 UNK         0.0000
     30 C19         8.3280   -4.2510  -11.2050 C.ar      1 UNK         0.0000
     31 C20        10.2570   -3.9820   -9.7890 C.ar      1 UNK         0.0000
     32 C21         8.2770   -4.4850  -13.5050 C.ar      1 UNK         0.0000
     33 C22        10.6360   -5.2070   -9.2490 C.ar      1 UNK         0.0000
     34 C23        11.9770   -5.4570   -8.9780 C.ar      1 UNK         0.0000
     35 C24        11.2180   -3.0100  -10.0440 C.ar      1 UNK         0.0000
     36 C25        12.9290   -4.4820   -9.2360 C.ar      1 UNK         0.0000
     37 C26        12.5490   -3.2640   -9.7670 C.ar      1 UNK         0.0000
     38 C27        10.8630   -7.3860   -8.8110 C.3       1 UNK         0.0000
     39 H1          1.3920  -10.1710   -7.9450 H         1 UNK         0.0000
     40 H2          1.1040   -8.4140   -7.9570 H         1 UNK         0.0000
     41 H3          2.9760   -6.8930   -7.5400 H         1 UNK         0.0000
     42 H4          4.5930   -7.5710   -7.2300 H         1 UNK         0.0000
     43 H5          1.9170  -10.0820   -5.5330 H         1 UNK         0.0000
     44 H6          0.3000   -9.4030   -5.8410 H         1 UNK         0.0000
     45 H7          3.5010   -6.8040   -5.1270 H         1 UNK         0.0000
     46 H8          3.7900   -8.5600   -5.1140 H         1 UNK         0.0000
     47 H9          4.5070   -9.2660   -9.2360 H         1 UNK         0.0000
     48 H10         2.8440   -9.7640   -9.6260 H         1 UNK         0.0000
     49 H11         5.8460   -6.1440   -7.6440 H         1 UNK         0.0000
     50 H12         8.0470   -6.2050   -6.5390 H         1 UNK         0.0000
     51 H13         7.9850   -4.4450   -6.2750 H         1 UNK         0.0000
     52 H14         5.9930   -3.1310   -7.1600 H         1 UNK         0.0000
     53 H15         4.6990   -3.9960   -8.0260 H         1 UNK         0.0000
     54 H16         2.1150   -7.5140   -9.8940 H         1 UNK         0.0000
     55 H17         3.5500   -6.8640   -9.0680 H         1 UNK         0.0000
     56 H18         2.0730   -8.6620   -3.4100 H         1 UNK         0.0000
     57 H19         1.6000   -6.9530   -3.5610 H         1 UNK         0.0000
     58 H20         0.3940   -8.2360   -3.8220 H         1 UNK         0.0000
     59 H21         6.0430   -6.5080   -5.1350 H         1 UNK         0.0000
     60 H22         7.2990   -5.6340   -4.2250 H         1 UNK         0.0000
     61 H23         4.1420   -5.2530   -5.9800 H         1 UNK         0.0000
     62 H24         4.0700   -3.5030   -5.6600 H         1 UNK         0.0000
     63 H25         5.0430   -6.4920   -8.9130 H         1 UNK         0.0000
     64 H26         5.0950   -6.8270  -13.1750 H         1 UNK         0.0000
     65 H27         8.3830   -3.1790   -9.4640 H         1 UNK         0.0000
     66 H28         8.7180   -4.2380  -14.4600 H         1 UNK         0.0000
     67 H29        13.9690   -4.6740   -9.0210 H         1 UNK         0.0000
     68 H30        13.2930   -2.5080   -9.9670 H         1 UNK         0.0000
     69 H31        10.9650   -7.9020   -9.7650 H         1 UNK         0.0000
     70 H32        10.5730   -8.0840   -8.0260 H         1 UNK         0.0000
@<TRIPOS>BOND
     1    1   35 1
     2    2   17 1
     3    2   24 1
     4    3   22 1
     5    3   23 1
     6    4   20 1
     7    4   25 1
     8    5   33 1
     9    5   38 1
    10    6   34 1
    11    6   38 1
    12    7   12 1
    13    7   13 1
    14    7   16 1
    15    8   14 1
    16    8   15 1
    17    8   21 1
    18    9   30 1
    19    9   31 1
    20    9   65 1
    21   10   28 ar
    22   10   32 ar
    23   11   30 ar
    24   11   32 ar
    25   12   14 1
    26   12   39 1
    27   12   40 1
    28   13   15 1
    29   13   41 1
    30   13   42 1
    31   14   43 1
    32   14   44 1
    33   15   45 1
    34   15   46 1
    35   16   20 1
    36   16   47 1
    37   16   48 1
    38   17   18 1
    39   17   19 1
    40   17   49 1
    41   18   22 1
    42   18   50 1
    43   18   51 1
    44   19   23 1
    45   19   52 1
    46   19   53 1
    47   20   54 1
    48   20   55 1
    49   21   56 1
    50   21   57 1
    51   21   58 1
    52   22   59 1
    53   22   60 1
    54   23   61 1
    55   23   62 1
    56   24   26 ar
    57   24   27 ar
    58   25   27 ar
    59   25   29 ar
    60   26   28 ar
    61   26   30 ar
    62   27   63 1
    63   28   29 ar
    64   29   64 1
    65   31   33 ar
    66   31   35 ar
    67   32   66 1
    68   33   34 ar
    69   34   36 ar
    70   35   37 ar
    71   36   37 ar
    72   36   67 1
    73   37   68 1
    74   38   69 1
    75   38   70 1
