@<TRIPOS>MOLECULE
25174101
   55    58     0     0     0
SMALL
NO_CHARGES

@<TRIPOS>ATOM
      1 O1          5.9850   -6.5770  -10.3140 O.2       1 UNK         0.0000
      2 N1          8.4530   -4.9360  -12.2850 N.pl3     1 UNK         0.0000
      3 N2          8.7540   -5.5130  -13.5240 N.2       1 UNK         0.0000
      4 N3          6.3890   -4.5100  -11.0200 N.am      1 UNK         0.0000
      5 N4          5.1580   -4.9260   -9.0800 N.am      1 UNK         0.0000
      6 N5         10.8740   -1.1630  -10.4920 N.pl3     1 UNK         0.0000
      7 C1          7.5060   -6.5590  -15.4310 C.3       1 UNK         0.0000
      8 C2          7.6340   -5.8910  -14.0870 C.2       1 UNK         0.0000
      9 C3          7.8150   -8.0510  -15.2890 C.3       1 UNK         0.0000
     10 C4          6.0820   -6.3810  -15.9580 C.3       1 UNK         0.0000
     11 C5          8.4950   -5.9250  -16.4120 C.3       1 UNK         0.0000
     12 C6          6.5780   -5.5760  -13.2270 C.2       1 UNK         0.0000
     13 C7          7.1030   -4.9810  -12.1210 C.2       1 UNK         0.0000
     14 C8          9.3780   -4.4070  -11.3740 C.ar      1 UNK         0.0000
     15 C9          9.6690   -3.0500  -11.3890 C.ar      1 UNK         0.0000
     16 C10        10.0090   -5.2410  -10.4590 C.ar      1 UNK         0.0000
     17 C11         5.8490   -5.3810  -10.1440 C.2       1 UNK         0.0000
     18 C12         4.7000   -5.8200   -8.1100 C.ar      1 UNK         0.0000
     19 C13         4.8590   -5.5280   -6.7390 C.ar      1 UNK         0.0000
     20 C14        10.5820   -2.5300  -10.4830 C.ar      1 UNK         0.0000
     21 C15         4.3860   -6.4500   -5.7740 C.ar      1 UNK         0.0000
     22 C16        10.9210   -4.7200   -9.5620 C.ar      1 UNK         0.0000
     23 C17        11.2100   -3.3690   -9.5700 C.ar      1 UNK         0.0000
     24 C18         4.0870   -6.9960   -8.4850 C.ar      1 UNK         0.0000
     25 C19         5.4770   -4.3420   -6.3150 C.ar      1 UNK         0.0000
     26 C20         3.7680   -7.6390   -6.1970 C.ar      1 UNK         0.0000
     27 C21         3.6270   -7.8950   -7.5260 C.ar      1 UNK         0.0000
     28 C22         4.5460   -6.1580   -4.4080 C.ar      1 UNK         0.0000
     29 C23         5.6150   -4.0910   -4.9830 C.ar      1 UNK         0.0000
     30 C24         5.1500   -4.9980   -4.0330 C.ar      1 UNK         0.0000
     31 H1          6.9670   -8.6330  -15.6480 H         1 UNK         0.0000
     32 H2          8.7000   -8.2970  -15.8790 H         1 UNK         0.0000
     33 H3          8.0010   -8.2870  -14.2420 H         1 UNK         0.0000
     34 H4          5.8400   -7.1980  -16.6390 H         1 UNK         0.0000
     35 H5          5.3820   -6.3850  -15.1220 H         1 UNK         0.0000
     36 H6          6.0070   -5.4320  -16.4880 H         1 UNK         0.0000
     37 H7          8.1910   -6.1530  -17.4340 H         1 UNK         0.0000
     38 H8          8.5050   -4.8440  -16.2700 H         1 UNK         0.0000
     39 H9          9.4930   -6.3240  -16.2320 H         1 UNK         0.0000
     40 H10         5.5310   -5.7680  -13.4090 H         1 UNK         0.0000
     41 H11         6.2800   -3.5550  -10.8840 H         1 UNK         0.0000
     42 H12         9.1830   -2.4010  -12.1020 H         1 UNK         0.0000
     43 H13         9.7860   -6.2970  -10.4510 H         1 UNK         0.0000
     44 H14         4.9800   -3.9770   -8.9880 H         1 UNK         0.0000
     45 H15        11.4100   -5.3700   -8.8510 H         1 UNK         0.0000
     46 H16        11.9230   -2.9650   -8.8670 H         1 UNK         0.0000
     47 H17         3.9630   -7.2240   -9.5340 H         1 UNK         0.0000
     48 H18         5.8420   -3.6300   -7.0410 H         1 UNK         0.0000
     49 H19         3.4080   -8.3500   -5.4680 H         1 UNK         0.0000
     50 H20         3.1510   -8.8110   -7.8430 H         1 UNK         0.0000
     51 H21         4.1900   -6.8520   -3.6600 H         1 UNK         0.0000
     52 H22         6.0900   -3.1780   -4.6600 H         1 UNK         0.0000
     53 H23         5.2720   -4.7760   -2.9830 H         1 UNK         0.0000
     54 H24        10.5430   -0.5920   -9.7810 H         1 UNK         0.0000
     55 H25        11.4090   -0.7870  -11.2090 H         1 UNK         0.0000
@<TRIPOS>BOND
     1    1   17 2
     2    2    3 1
     3    2   13 1
     4    2   14 1
     5    3    8 2
     6    4   13 1
     7    4   17 am
     8    4   41 1
     9    5   17 am
    10    5   18 1
    11    5   44 1
    12    6   20 1
    13    6   54 1
    14    6   55 1
    15    7    8 1
    16    7    9 1
    17    7   10 1
    18    7   11 1
    19    8   12 1
    20    9   31 1
    21    9   32 1
    22    9   33 1
    23   10   34 1
    24   10   35 1
    25   10   36 1
    26   11   37 1
    27   11   38 1
    28   11   39 1
    29   12   13 2
    30   12   40 1
    31   14   15 ar
    32   14   16 ar
    33   15   20 ar
    34   15   42 1
    35   16   22 ar
    36   16   43 1
    37   18   19 ar
    38   18   24 ar
    39   19   21 ar
    40   19   25 ar
    41   20   23 ar
    42   21   26 ar
    43   21   28 ar
    44   22   23 ar
    45   22   45 1
    46   23   46 1
    47   24   27 ar
    48   24   47 1
    49   25   29 ar
    50   25   48 1
    51   26   27 ar
    52   26   49 1
    53   27   50 1
    54   28   30 ar
    55   28   51 1
    56   29   30 ar
    57   29   52 1
    58   30   53 1
