@<TRIPOS>MOLECULE
25174101
   55    58     0     0     0
SMALL
NO_CHARGES

@<TRIPOS>ATOM
      1 O1          6.7140   -5.2010   -5.4710 O.2       1 UNK         0.0000
      2 N1          5.0650   -6.3510   -8.3050 N.pl3     1 UNK         0.0000
      3 N2          5.8160   -6.6900   -9.4370 N.2       1 UNK         0.0000
      4 N3          5.0450   -4.4600   -6.7340 N.am      1 UNK         0.0000
      5 N4          5.2430   -3.8600   -4.4870 N.am      1 UNK         0.0000
      6 N5          2.7090   -8.0020   -4.4280 N.pl3     1 UNK         0.0000
      7 C1          7.6950   -5.7070  -10.7750 C.3       1 UNK         0.0000
      8 C2          6.6900   -5.7390   -9.6540 C.2       1 UNK         0.0000
      9 C3          8.5220   -4.4230  -10.6810 C.3       1 UNK         0.0000
     10 C4          8.6210   -6.9190  -10.6660 C.3       1 UNK         0.0000
     11 C5          6.9630   -5.7430  -12.1180 C.3       1 UNK         0.0000
     12 C6          6.5260   -4.7560   -8.6730 C.2       1 UNK         0.0000
     13 C7          5.5220   -5.1540   -7.8460 C.2       1 UNK         0.0000
     14 C8          4.0280   -7.1090   -7.7450 C.ar      1 UNK         0.0000
     15 C9          3.8870   -7.1820   -6.3660 C.ar      1 UNK         0.0000
     16 C10         3.1430   -7.7930   -8.5690 C.ar      1 UNK         0.0000
     17 C11         5.7030   -4.5310   -5.5600 C.2       1 UNK         0.0000
     18 C12         5.9850   -3.8380   -3.3050 C.ar      1 UNK         0.0000
     19 C13         5.9680   -2.6990   -2.4730 C.ar      1 UNK         0.0000
     20 C14         2.8560   -7.9300   -5.8160 C.ar      1 UNK         0.0000
     21 C15         6.7300   -2.6990   -1.2790 C.ar      1 UNK         0.0000
     22 C16         2.1210   -8.5410   -8.0180 C.ar      1 UNK         0.0000
     23 C17         1.9740   -8.6120   -6.6460 C.ar      1 UNK         0.0000
     24 C18         6.7430   -4.9300   -2.9400 C.ar      1 UNK         0.0000
     25 C19         5.2100   -1.5660   -2.8060 C.ar      1 UNK         0.0000
     26 C20         7.4900   -3.8330   -0.9430 C.ar      1 UNK         0.0000
     27 C21         7.4890   -4.9180   -1.7650 C.ar      1 UNK         0.0000
     28 C22         6.7110   -1.5640   -0.4500 C.ar      1 UNK         0.0000
     29 C23         5.2140   -0.4830   -1.9800 C.ar      1 UNK         0.0000
     30 C24         5.9640   -0.4830   -0.8060 C.ar      1 UNK         0.0000
     31 H1          9.2340   -4.3880  -11.5060 H         1 UNK         0.0000
     32 H2          7.8600   -3.5580  -10.7360 H         1 UNK         0.0000
     33 H3          9.0620   -4.4060   -9.7340 H         1 UNK         0.0000
     34 H4          8.1700   -7.7680  -11.1820 H         1 UNK         0.0000
     35 H5          9.5820   -6.6850  -11.1220 H         1 UNK         0.0000
     36 H6          8.7690   -7.1700   -9.6160 H         1 UNK         0.0000
     37 H7          7.6680   -5.5380  -12.9230 H         1 UNK         0.0000
     38 H8          6.5220   -6.7300  -12.2650 H         1 UNK         0.0000
     39 H9          6.1760   -4.9900  -12.1240 H         1 UNK         0.0000
     40 H10         7.0970   -3.8430   -8.5870 H         1 UNK         0.0000
     41 H11         4.2380   -3.9250   -6.8060 H         1 UNK         0.0000
     42 H12         4.5770   -6.6550   -5.7240 H         1 UNK         0.0000
     43 H13         3.2560   -7.7400   -9.6420 H         1 UNK         0.0000
     44 H14         4.3940   -3.3930   -4.5350 H         1 UNK         0.0000
     45 H15         1.4340   -9.0720   -8.6600 H         1 UNK         0.0000
     46 H16         1.1740   -9.1970   -6.2180 H         1 UNK         0.0000
     47 H17         6.7600   -5.8040   -3.5750 H         1 UNK         0.0000
     48 H18         4.6230   -1.5530   -3.7140 H         1 UNK         0.0000
     49 H19         8.0770   -3.8410   -0.0370 H         1 UNK         0.0000
     50 H20         8.0760   -5.7850   -1.5000 H         1 UNK         0.0000
     51 H21         7.2870   -1.5490    0.4640 H         1 UNK         0.0000
     52 H22         4.6300    0.3860   -2.2390 H         1 UNK         0.0000
     53 H23         5.9520    0.3890   -0.1670 H         1 UNK         0.0000
     54 H24         2.8440   -7.2100   -3.8850 H         1 UNK         0.0000
     55 H25         2.4700   -8.8440   -4.0100 H         1 UNK         0.0000
@<TRIPOS>BOND
     1    1   17 2
     2    2    3 1
     3    2   13 1
     4    2   14 1
     5    3    8 2
     6    4   13 1
     7    4   17 am
     8    4   41 1
     9    5   17 am
    10    5   18 1
    11    5   44 1
    12    6   20 1
    13    6   54 1
    14    6   55 1
    15    7    8 1
    16    7    9 1
    17    7   10 1
    18    7   11 1
    19    8   12 1
    20    9   31 1
    21    9   32 1
    22    9   33 1
    23   10   34 1
    24   10   35 1
    25   10   36 1
    26   11   37 1
    27   11   38 1
    28   11   39 1
    29   12   13 2
    30   12   40 1
    31   14   15 ar
    32   14   16 ar
    33   15   20 ar
    34   15   42 1
    35   16   22 ar
    36   16   43 1
    37   18   19 ar
    38   18   24 ar
    39   19   21 ar
    40   19   25 ar
    41   20   23 ar
    42   21   26 ar
    43   21   28 ar
    44   22   23 ar
    45   22   45 1
    46   23   46 1
    47   24   27 ar
    48   24   47 1
    49   25   29 ar
    50   25   48 1
    51   26   27 ar
    52   26   49 1
    53   27   50 1
    54   28   30 ar
    55   28   51 1
    56   29   30 ar
    57   29   52 1
    58   30   53 1
