@<TRIPOS>MOLECULE
25174101
   55    58     0     0     0
SMALL
NO_CHARGES

@<TRIPOS>ATOM
      1 O1          8.2670   -5.2010   -9.5760 O.2       1 UNK         0.0000
      2 N1          5.4100   -6.3120   -8.3440 N.pl3     1 UNK         0.0000
      3 N2          5.1860   -6.5610   -6.9850 N.2       1 UNK         0.0000
      4 N3          6.2020   -4.3870   -9.6510 N.am      1 UNK         0.0000
      5 N4          7.7760   -3.8940  -11.3030 N.am      1 UNK         0.0000
      6 N5          2.4430   -8.6010  -11.3880 N.pl3     1 UNK         0.0000
      7 C1          5.3880   -5.3170   -4.8170 C.3       1 UNK         0.0000
      8 C2          5.4850   -5.4790   -6.3110 C.2       1 UNK         0.0000
      9 C3          6.7540   -5.5910   -4.1850 C.3       1 UNK         0.0000
     10 C4          4.9480   -3.8910   -4.4840 C.3       1 UNK         0.0000
     11 C5          4.3620   -6.3090   -4.2630 C.3       1 UNK         0.0000
     12 C6          5.9180   -4.5020   -7.2130 C.2       1 UNK         0.0000
     13 C7          5.8590   -5.0330   -8.4640 C.2       1 UNK         0.0000
     14 C8          5.2090   -7.2190   -9.3940 C.ar      1 UNK         0.0000
     15 C9          3.9270   -7.4620   -9.8650 C.ar      1 UNK         0.0000
     16 C10         6.2920   -7.8800   -9.9590 C.ar      1 UNK         0.0000
     17 C11         7.4450   -4.5180  -10.1560 C.2       1 UNK         0.0000
     18 C12         9.0240   -4.1220  -11.8880 C.ar      1 UNK         0.0000
     19 C13        10.1310   -3.3190  -11.5420 C.ar      1 UNK         0.0000
     20 C14         3.7320   -8.3570  -10.9070 C.ar      1 UNK         0.0000
     21 C15        11.3860   -3.5690  -12.1490 C.ar      1 UNK         0.0000
     22 C16         6.0950   -8.7740  -10.9940 C.ar      1 UNK         0.0000
     23 C17         4.8210   -9.0150  -11.4690 C.ar      1 UNK         0.0000
     24 C18         9.1830   -5.1340  -12.8100 C.ar      1 UNK         0.0000
     25 C19        10.0120   -2.2790  -10.6080 C.ar      1 UNK         0.0000
     26 C20        11.5070   -4.6100  -13.0850 C.ar      1 UNK         0.0000
     27 C21        10.4220   -5.3690  -13.4000 C.ar      1 UNK         0.0000
     28 C22        12.4890   -2.7690  -11.8030 C.ar      1 UNK         0.0000
     29 C23        11.1020   -1.5230  -10.2960 C.ar      1 UNK         0.0000
     30 C24        12.3370   -1.7680  -10.8930 C.ar      1 UNK         0.0000
     31 H1          7.3800   -6.1330   -4.8940 H         1 UNK         0.0000
     32 H2          7.2330   -4.6450   -3.9280 H         1 UNK         0.0000
     33 H3          6.6250   -6.1890   -3.2830 H         1 UNK         0.0000
     34 H4          4.4270   -3.4620   -5.3410 H         1 UNK         0.0000
     35 H5          4.2800   -3.9070   -3.6230 H         1 UNK         0.0000
     36 H6          5.8250   -3.2860   -4.2520 H         1 UNK         0.0000
     37 H7          3.3900   -5.8210   -4.1840 H         1 UNK         0.0000
     38 H8          4.2840   -7.1640   -4.9340 H         1 UNK         0.0000
     39 H9          4.6790   -6.6480   -3.2770 H         1 UNK         0.0000
     40 H10         6.2400   -3.5020   -6.9610 H         1 UNK         0.0000
     41 H11         5.5460   -3.8420  -10.1150 H         1 UNK         0.0000
     42 H12         3.0830   -6.9530   -9.4230 H         1 UNK         0.0000
     43 H13         7.2900   -7.6940   -9.5890 H         1 UNK         0.0000
     44 H14         7.1490   -3.2850  -11.7230 H         1 UNK         0.0000
     45 H15         6.9380   -9.2860  -11.4320 H         1 UNK         0.0000
     46 H16         4.6690   -9.7140  -12.2780 H         1 UNK         0.0000
     47 H17         8.3380   -5.7500  -13.0780 H         1 UNK         0.0000
     48 H18         9.0600   -2.0780  -10.1370 H         1 UNK         0.0000
     49 H19        12.4590   -4.8050  -13.5560 H         1 UNK         0.0000
     50 H20        10.5230   -6.1670  -14.1210 H         1 UNK         0.0000
     51 H21        13.4530   -2.9470  -12.2570 H         1 UNK         0.0000
     52 H22        11.0070   -0.7240   -9.5770 H         1 UNK         0.0000
     53 H23        13.1860   -1.1540  -10.6290 H         1 UNK         0.0000
     54 H24         1.9290   -7.8800  -11.7830 H         1 UNK         0.0000
     55 H25         2.0640   -9.4920  -11.3270 H         1 UNK         0.0000
@<TRIPOS>BOND
     1    1   17 2
     2    2    3 1
     3    2   13 1
     4    2   14 1
     5    3    8 2
     6    4   13 1
     7    4   17 am
     8    4   41 1
     9    5   17 am
    10    5   18 1
    11    5   44 1
    12    6   20 1
    13    6   54 1
    14    6   55 1
    15    7    8 1
    16    7    9 1
    17    7   10 1
    18    7   11 1
    19    8   12 1
    20    9   31 1
    21    9   32 1
    22    9   33 1
    23   10   34 1
    24   10   35 1
    25   10   36 1
    26   11   37 1
    27   11   38 1
    28   11   39 1
    29   12   13 2
    30   12   40 1
    31   14   15 ar
    32   14   16 ar
    33   15   20 ar
    34   15   42 1
    35   16   22 ar
    36   16   43 1
    37   18   19 ar
    38   18   24 ar
    39   19   21 ar
    40   19   25 ar
    41   20   23 ar
    42   21   26 ar
    43   21   28 ar
    44   22   23 ar
    45   22   45 1
    46   23   46 1
    47   24   27 ar
    48   24   47 1
    49   25   29 ar
    50   25   48 1
    51   26   27 ar
    52   26   49 1
    53   27   50 1
    54   28   30 ar
    55   28   51 1
    56   29   30 ar
    57   29   52 1
    58   30   53 1
