@<TRIPOS>MOLECULE
25174101
   55    58     0     0     0
SMALL
NO_CHARGES

@<TRIPOS>ATOM
      1 O1          7.3880   -6.0420   -9.3300 O.2       1 UNK         0.0000
      2 N1          9.0770   -5.0940  -11.9130 N.pl3     1 UNK         0.0000
      3 N2         10.4680   -4.9600  -11.9980 N.2       1 UNK         0.0000
      4 N3          7.3230   -4.1420  -10.4780 N.am      1 UNK         0.0000
      5 N4          5.4750   -4.9140   -9.2790 N.am      1 UNK         0.0000
      6 N5          7.5630   -9.4680  -13.2860 N.pl3     1 UNK         0.0000
      7 C1         12.2820   -3.6950  -10.8160 C.3       1 UNK         0.0000
      8 C2         10.8600   -4.1220  -11.0720 C.2       1 UNK         0.0000
      9 C3         12.2870   -2.3490  -10.0880 C.3       1 UNK         0.0000
     10 C4         12.9830   -4.7450   -9.9530 C.3       1 UNK         0.0000
     11 C5         13.0200   -3.5560  -12.1490 C.3       1 UNK         0.0000
     12 C6          9.7350   -3.6840  -10.3660 C.2       1 UNK         0.0000
     13 C7          8.6440   -4.3000  -10.8960 C.2       1 UNK         0.0000
     14 C8          8.2740   -5.9010  -12.7310 C.ar      1 UNK         0.0000
     15 C9          8.3210   -7.2820  -12.6050 C.ar      1 UNK         0.0000
     16 C10         7.4330   -5.3190  -13.6720 C.ar      1 UNK         0.0000
     17 C11         6.7510   -5.0680   -9.6830 C.2       1 UNK         0.0000
     18 C12         4.9200   -5.8100   -8.3620 C.ar      1 UNK         0.0000
     19 C13         4.9380   -5.5200   -6.9820 C.ar      1 UNK         0.0000
     20 C14         7.5210   -8.0760  -13.4130 C.ar      1 UNK         0.0000
     21 C15         4.3690   -6.4440   -6.0710 C.ar      1 UNK         0.0000
     22 C16         6.6410   -6.1140  -14.4780 C.ar      1 UNK         0.0000
     23 C17         6.6820   -7.4880  -14.3520 C.ar      1 UNK         0.0000
     24 C18         4.3500   -6.9860   -8.8000 C.ar      1 UNK         0.0000
     25 C19         5.5080   -4.3340   -6.4940 C.ar      1 UNK         0.0000
     26 C20         3.7980   -7.6320   -6.5570 C.ar      1 UNK         0.0000
     27 C21         3.7950   -7.8870   -7.8940 C.ar      1 UNK         0.0000
     28 C22         4.3870   -6.1540   -4.6960 C.ar      1 UNK         0.0000
     29 C23         5.5080   -4.0850   -5.1550 C.ar      1 UNK         0.0000
     30 C24         4.9490   -4.9940   -4.2590 C.ar      1 UNK         0.0000
     31 H1         11.2660   -1.9760  -10.0090 H         1 UNK         0.0000
     32 H2         12.7050   -2.4780   -9.0890 H         1 UNK         0.0000
     33 H3         12.8930   -1.6360  -10.6450 H         1 UNK         0.0000
     34 H4         13.4330   -5.5030  -10.5950 H         1 UNK         0.0000
     35 H5         13.7600   -4.2660   -9.3560 H         1 UNK         0.0000
     36 H6         12.2560   -5.2160   -9.2910 H         1 UNK         0.0000
     37 H7         12.6240   -2.7010  -12.6970 H         1 UNK         0.0000
     38 H8         14.0840   -3.4060  -11.9620 H         1 UNK         0.0000
     39 H9         12.8790   -4.4610  -12.7390 H         1 UNK         0.0000
     40 H10         9.7340   -2.9840   -9.5440 H         1 UNK         0.0000
     41 H11         6.8150   -3.3640  -10.7590 H         1 UNK         0.0000
     42 H12         8.9770   -7.7360  -11.8770 H         1 UNK         0.0000
     43 H13         7.4000   -4.2440  -13.7730 H         1 UNK         0.0000
     44 H14         4.9420   -4.1820   -9.6240 H         1 UNK         0.0000
     45 H15         5.9890   -5.6590  -15.2090 H         1 UNK         0.0000
     46 H16         6.0620   -8.1070  -14.9840 H         1 UNK         0.0000
     47 H17         4.3350   -7.2120   -9.8560 H         1 UNK         0.0000
     48 H18         5.9450   -3.6210   -7.1790 H         1 UNK         0.0000
     49 H19         3.3650   -8.3440   -5.8700 H         1 UNK         0.0000
     50 H20         3.3540   -8.8030   -8.2600 H         1 UNK         0.0000
     51 H21         3.9570   -6.8480   -3.9890 H         1 UNK         0.0000
     52 H22         5.9470   -3.1720   -4.7840 H         1 UNK         0.0000
     53 H23         4.9620   -4.7740   -3.2010 H         1 UNK         0.0000
     54 H24         8.1210   -9.9920  -13.8810 H         1 UNK         0.0000
     55 H25         7.0340   -9.9080  -12.6020 H         1 UNK         0.0000
@<TRIPOS>BOND
     1    1   17 2
     2    2    3 1
     3    2   13 1
     4    2   14 1
     5    3    8 2
     6    4   13 1
     7    4   17 am
     8    4   41 1
     9    5   17 am
    10    5   18 1
    11    5   44 1
    12    6   20 1
    13    6   54 1
    14    6   55 1
    15    7    8 1
    16    7    9 1
    17    7   10 1
    18    7   11 1
    19    8   12 1
    20    9   31 1
    21    9   32 1
    22    9   33 1
    23   10   34 1
    24   10   35 1
    25   10   36 1
    26   11   37 1
    27   11   38 1
    28   11   39 1
    29   12   13 2
    30   12   40 1
    31   14   15 ar
    32   14   16 ar
    33   15   20 ar
    34   15   42 1
    35   16   22 ar
    36   16   43 1
    37   18   19 ar
    38   18   24 ar
    39   19   21 ar
    40   19   25 ar
    41   20   23 ar
    42   21   26 ar
    43   21   28 ar
    44   22   23 ar
    45   22   45 1
    46   23   46 1
    47   24   27 ar
    48   24   47 1
    49   25   29 ar
    50   25   48 1
    51   26   27 ar
    52   26   49 1
    53   27   50 1
    54   28   30 ar
    55   28   51 1
    56   29   30 ar
    57   29   52 1
    58   30   53 1
