@<TRIPOS>MOLECULE
25174101
   55    58     0     0     0
SMALL
NO_CHARGES

@<TRIPOS>ATOM
      1 O1          9.4050   -3.8630  -10.7380 O.2       1 UNK         0.0000
      2 N1          7.2380   -6.1860  -10.0230 N.pl3     1 UNK         0.0000
      3 N2          6.1340   -6.0380   -9.1750 N.2       1 UNK         0.0000
      4 N3          9.6630   -5.8560   -9.7930 N.am      1 UNK         0.0000
      5 N4         11.3960   -4.8210  -10.9660 N.am      1 UNK         0.0000
      6 N5          7.7230   -9.6700  -13.3290 N.pl3     1 UNK         0.0000
      7 C1          5.6990   -5.3460   -6.8040 C.3       1 UNK         0.0000
      8 C2          6.5610   -5.6280   -8.0070 C.2       1 UNK         0.0000
      9 C3          4.9670   -4.0170   -7.0030 C.3       1 UNK         0.0000
     10 C4          4.6780   -6.4700   -6.6320 C.3       1 UNK         0.0000
     11 C5          6.5790   -5.2610   -5.5550 C.3       1 UNK         0.0000
     12 C6          7.9520   -5.5050   -8.0640 C.2       1 UNK         0.0000
     13 C7          8.3520   -5.8470   -9.3190 C.2       1 UNK         0.0000
     14 C8          7.2020   -6.6070  -11.3600 C.ar      1 UNK         0.0000
     15 C9          7.4850   -7.9270  -11.6800 C.ar      1 UNK         0.0000
     16 C10         6.8890   -5.7010  -12.3660 C.ar      1 UNK         0.0000
     17 C11        10.1290   -4.8120  -10.5080 C.2       1 UNK         0.0000
     18 C12        11.9160   -3.6930  -11.6050 C.ar      1 UNK         0.0000
     19 C13        12.3380   -2.5780  -10.8500 C.ar      1 UNK         0.0000
     20 C14         7.4440   -8.3410  -13.0030 C.ar      1 UNK         0.0000
     21 C15        12.8610   -1.4440  -11.5190 C.ar      1 UNK         0.0000
     22 C16         6.8540   -6.1160  -13.6840 C.ar      1 UNK         0.0000
     23 C17         7.1290   -7.4300  -14.0060 C.ar      1 UNK         0.0000
     24 C18        12.0210   -3.6590  -12.9780 C.ar      1 UNK         0.0000
     25 C19        12.2480   -2.5710   -9.4500 C.ar      1 UNK         0.0000
     26 C20        12.9510   -1.4500  -12.9220 C.ar      1 UNK         0.0000
     27 C21        12.5360   -2.5390  -13.6250 C.ar      1 UNK         0.0000
     28 C22        13.2820   -0.3350  -10.7670 C.ar      1 UNK         0.0000
     29 C23        12.6650   -1.4780   -8.7520 C.ar      1 UNK         0.0000
     30 C24        13.1800   -0.3630   -9.4100 C.ar      1 UNK         0.0000
     31 H1          5.3980   -3.2630   -6.3430 H         1 UNK         0.0000
     32 H2          5.0740   -3.6940   -8.0400 H         1 UNK         0.0000
     33 H3          3.9110   -4.1440   -6.7700 H         1 UNK         0.0000
     34 H4          3.6740   -6.0460   -6.5890 H         1 UNK         0.0000
     35 H5          4.7460   -7.1570   -7.4760 H         1 UNK         0.0000
     36 H6          4.8840   -7.0100   -5.7080 H         1 UNK         0.0000
     37 H7          7.5630   -4.8790   -5.8290 H         1 UNK         0.0000
     38 H8          6.1190   -4.5890   -4.8300 H         1 UNK         0.0000
     39 H9          6.6840   -6.2530   -5.1160 H         1 UNK         0.0000
     40 H10         8.5950   -5.1900   -7.2550 H         1 UNK         0.0000
     41 H11        10.2410   -6.6140   -9.6090 H         1 UNK         0.0000
     42 H12         7.7330   -8.6310  -10.8990 H         1 UNK         0.0000
     43 H13         6.6730   -4.6730  -12.1170 H         1 UNK         0.0000
     44 H14        11.9470   -5.6110  -10.8530 H         1 UNK         0.0000
     45 H15         6.6100   -5.4100  -14.4640 H         1 UNK         0.0000
     46 H16         7.1010   -7.7510  -15.0360 H         1 UNK         0.0000
     47 H17        11.6980   -4.5100  -13.5600 H         1 UNK         0.0000
     48 H18        11.8510   -3.4290   -8.9270 H         1 UNK         0.0000
     49 H19        13.3450   -0.5890  -13.4410 H         1 UNK         0.0000
     50 H20        12.6080   -2.5350  -14.7030 H         1 UNK         0.0000
     51 H21        13.6830    0.5370  -11.2630 H         1 UNK         0.0000
     52 H22        12.5960   -1.4760   -7.6750 H         1 UNK         0.0000
     53 H23        13.5030    0.4920   -8.8340 H         1 UNK         0.0000
     54 H24         8.2890   -9.8740  -14.0900 H         1 UNK         0.0000
     55 H25         7.3520  -10.3890  -12.7930 H         1 UNK         0.0000
@<TRIPOS>BOND
     1    1   17 2
     2    2    3 1
     3    2   13 1
     4    2   14 1
     5    3    8 2
     6    4   13 1
     7    4   17 am
     8    4   41 1
     9    5   17 am
    10    5   18 1
    11    5   44 1
    12    6   20 1
    13    6   54 1
    14    6   55 1
    15    7    8 1
    16    7    9 1
    17    7   10 1
    18    7   11 1
    19    8   12 1
    20    9   31 1
    21    9   32 1
    22    9   33 1
    23   10   34 1
    24   10   35 1
    25   10   36 1
    26   11   37 1
    27   11   38 1
    28   11   39 1
    29   12   13 2
    30   12   40 1
    31   14   15 ar
    32   14   16 ar
    33   15   20 ar
    34   15   42 1
    35   16   22 ar
    36   16   43 1
    37   18   19 ar
    38   18   24 ar
    39   19   21 ar
    40   19   25 ar
    41   20   23 ar
    42   21   26 ar
    43   21   28 ar
    44   22   23 ar
    45   22   45 1
    46   23   46 1
    47   24   27 ar
    48   24   47 1
    49   25   29 ar
    50   25   48 1
    51   26   27 ar
    52   26   49 1
    53   27   50 1
    54   28   30 ar
    55   28   51 1
    56   29   30 ar
    57   29   52 1
    58   30   53 1
