@<TRIPOS>MOLECULE
24821094
   57    61     0     0     0
SMALL
NO_CHARGES

@<TRIPOS>ATOM
      1 O1          7.7360   -0.7960   -6.0630 O.2       1 UNK         0.0000
      2 O2         -2.4240   -5.6820    1.2010 O.3       1 UNK         0.0000
      3 N1          6.0850   -1.8470   -5.0130 N.am      1 UNK         0.0000
      4 N2          3.9560   -2.7350   -2.0850 N.pl3     1 UNK         0.0000
      5 N3          2.5960   -2.9870   -1.8750 N.2       1 UNK         0.0000
      6 N4          5.9920   -3.4880   -0.8730 N.ar      1 UNK         0.0000
      7 N5          5.5950   -4.8730    0.9370 N.ar      1 UNK         0.0000
      8 N6          3.4260   -5.5260    1.5910 N.pl3     1 UNK         0.0000
      9 C1          4.5060   -1.8950   -3.1510 C.3       1 UNK         0.0000
     10 C2          3.4030   -1.5600   -4.1580 C.3       1 UNK         0.0000
     11 C3          5.6330   -2.6480   -3.8670 C.3       1 UNK         0.0000
     12 C4          3.9690   -0.6550   -5.2550 C.3       1 UNK         0.0000
     13 C5          5.0880   -1.3900   -5.9910 C.3       1 UNK         0.0000
     14 C6          4.6890   -3.3870   -1.1390 C.ar      1 UNK         0.0000
     15 C7          3.7770   -4.0740   -0.3160 C.ar      1 UNK         0.0000
     16 C8          7.3870   -1.5330   -5.1610 C.2       1 UNK         0.0000
     17 C9          2.4440   -3.7810   -0.8410 C.2       1 UNK         0.0000
     18 C10         4.2790   -4.8350    0.7520 C.ar      1 UNK         0.0000
     19 C11         1.1580   -4.2830   -0.3010 C.ar      1 UNK         0.0000
     20 C12         8.3860   -2.0820   -4.2300 C.2       1 UNK         0.0000
     21 C13         6.4150   -4.2130    0.1390 C.ar      1 UNK         0.0000
     22 C14         0.7390   -5.5820   -0.5900 C.ar      1 UNK         0.0000
     23 C15         0.3680   -3.4600    0.4990 C.ar      1 UNK         0.0000
     24 C16         9.5230   -1.4270   -4.0140 C.2       1 UNK         0.0000
     25 C17        -0.4580   -6.0460   -0.0870 C.ar      1 UNK         0.0000
     26 C18        -0.8310   -3.9280    0.9950 C.ar      1 UNK         0.0000
     27 C19        -1.2460   -5.2220    0.7070 C.ar      1 UNK         0.0000
     28 C20        -2.4680   -6.0480    2.5080 C.ar      1 UNK         0.0000
     29 C21        -1.3130   -6.4690    3.1530 C.ar      1 UNK         0.0000
     30 C22        -3.6670   -5.9960    3.2040 C.ar      1 UNK         0.0000
     31 C23        -1.3620   -6.8390    4.4820 C.ar      1 UNK         0.0000
     32 C24        -3.7110   -6.3730    4.5320 C.ar      1 UNK         0.0000
     33 C25        -2.5590   -6.7910    5.1710 C.ar      1 UNK         0.0000
     34 H1          4.9010   -0.9740   -2.7230 H         1 UNK         0.0000
     35 H2          3.0270   -2.4810   -4.6040 H         1 UNK         0.0000
     36 H3          2.5890   -1.0460   -3.6470 H         1 UNK         0.0000
     37 H4          5.2630   -3.6110   -4.2180 H         1 UNK         0.0000
     38 H5          6.4640   -2.8020   -3.1790 H         1 UNK         0.0000
     39 H6          3.1770   -0.3980   -5.9600 H         1 UNK         0.0000
     40 H7          4.3660    0.2550   -4.8070 H         1 UNK         0.0000
     41 H8          5.5600   -0.7140   -6.7040 H         1 UNK         0.0000
     42 H9          4.6730   -2.2490   -6.5180 H         1 UNK         0.0000
     43 H10         8.1970   -3.0180   -3.7270 H         1 UNK         0.0000
     44 H11         7.4780   -4.2720    0.3250 H         1 UNK         0.0000
     45 H12         1.3520   -6.2230   -1.2060 H         1 UNK         0.0000
     46 H13         0.6920   -2.4550    0.7280 H         1 UNK         0.0000
     47 H14         2.7450   -5.0490    2.0910 H         1 UNK         0.0000
     48 H15         3.5080   -6.4890    1.6800 H         1 UNK         0.0000
     49 H16        10.2580   -1.8320   -3.3340 H         1 UNK         0.0000
     50 H17         9.7110   -0.4900   -4.5180 H         1 UNK         0.0000
     51 H18        -0.7840   -7.0510   -0.3090 H         1 UNK         0.0000
     52 H19        -1.4460   -3.2900    1.6130 H         1 UNK         0.0000
     53 H20        -0.3770   -6.5060    2.6140 H         1 UNK         0.0000
     54 H21        -4.5670   -5.6630    2.7070 H         1 UNK         0.0000
     55 H22        -0.4630   -7.1670    4.9850 H         1 UNK         0.0000
     56 H23        -4.6460   -6.3370    5.0730 H         1 UNK         0.0000
     57 H24        -2.5950   -7.0830    6.2110 H         1 UNK         0.0000
@<TRIPOS>BOND
     1    1   16 2
     2    2   27 1
     3    2   28 1
     4    3   11 1
     5    3   13 1
     6    3   16 am
     7    4    5 1
     8    4    9 1
     9    4   14 1
    10    5   17 2
    11    6   14 ar
    12    6   21 ar
    13    7   18 ar
    14    7   21 ar
    15    8   18 1
    16    8   47 1
    17    8   48 1
    18    9   10 1
    19    9   11 1
    20    9   34 1
    21   10   12 1
    22   10   35 1
    23   10   36 1
    24   11   37 1
    25   11   38 1
    26   12   13 1
    27   12   39 1
    28   12   40 1
    29   13   41 1
    30   13   42 1
    31   14   15 ar
    32   15   17 1
    33   15   18 ar
    34   16   20 1
    35   17   19 1
    36   19   22 ar
    37   19   23 ar
    38   20   24 2
    39   20   43 1
    40   21   44 1
    41   22   25 ar
    42   22   45 1
    43   23   26 ar
    44   23   46 1
    45   24   49 1
    46   24   50 1
    47   25   27 ar
    48   25   51 1
    49   26   27 ar
    50   26   52 1
    51   28   29 ar
    52   28   30 ar
    53   29   31 ar
    54   29   53 1
    55   30   32 ar
    56   30   54 1
    57   31   33 ar
    58   31   55 1
    59   32   33 ar
    60   32   56 1
    61   33   57 1
