@<TRIPOS>MOLECULE
24821094
   57    61     0     0     0
SMALL
NO_CHARGES

@<TRIPOS>ATOM
      1 O1          9.1520   -4.4530    0.6370 O.2       1 UNK         0.0000
      2 O2         -2.8250   -5.7500    1.8200 O.3       1 UNK         0.0000
      3 N1          7.2000   -4.5620   -0.4190 N.am      1 UNK         0.0000
      4 N2          3.8130   -3.3620   -1.4060 N.pl3     1 UNK         0.0000
      5 N3          2.9610   -4.0200   -0.5120 N.2       1 UNK         0.0000
      6 N4          3.3580   -1.9410   -3.3940 N.ar      1 UNK         0.0000
      7 N5          1.1180   -1.6220   -3.8750 N.ar      1 UNK         0.0000
      8 N6         -0.6110   -2.5690   -2.5820 N.pl3     1 UNK         0.0000
      9 C1          5.2760   -3.3840   -1.3510 C.3       1 UNK         0.0000
     10 C2          5.8350   -3.6990   -2.7410 C.3       1 UNK         0.0000
     11 C3          5.7350   -4.4640   -0.3650 C.3       1 UNK         0.0000
     12 C4          7.3640   -3.6900   -2.6930 C.3       1 UNK         0.0000
     13 C5          7.8460   -4.7680   -1.7220 C.3       1 UNK         0.0000
     14 C6          3.0700   -2.7020   -2.3380 C.ar      1 UNK         0.0000
     15 C7          1.7180   -2.9400   -2.0270 C.ar      1 UNK         0.0000
     16 C8          7.9370   -4.4600    0.7050 C.2       1 UNK         0.0000
     17 C9          1.7100   -3.7920   -0.8390 C.2       1 UNK         0.0000
     18 C10         0.7310   -2.3650   -2.8440 C.ar      1 UNK         0.0000
     19 C11         0.5120   -4.3090   -0.1360 C.ar      1 UNK         0.0000
     20 C12         7.2730   -4.3560    2.0130 C.2       1 UNK         0.0000
     21 C13         2.3990   -1.4240   -4.1300 C.ar      1 UNK         0.0000
     22 C14         0.0810   -5.6170   -0.3590 C.ar      1 UNK         0.0000
     23 C15        -0.1840   -3.4910    0.7530 C.ar      1 UNK         0.0000
     24 C16         7.9820   -4.4830    3.1310 C.2       1 UNK         0.0000
     25 C17        -1.0340   -6.0950    0.2950 C.ar      1 UNK         0.0000
     26 C18        -1.3010   -3.9730    1.4020 C.ar      1 UNK         0.0000
     27 C19        -1.7280   -5.2770    1.1770 C.ar      1 UNK         0.0000
     28 C20        -2.6750   -6.1970    3.0950 C.ar      1 UNK         0.0000
     29 C21        -1.4160   -6.5390    3.5680 C.ar      1 UNK         0.0000
     30 C22        -3.7800   -6.3060    3.9280 C.ar      1 UNK         0.0000
     31 C23        -1.2670   -6.9910    4.8640 C.ar      1 UNK         0.0000
     32 C24        -3.6250   -6.7640    5.2210 C.ar      1 UNK         0.0000
     33 C25        -2.3700   -7.1040    5.6900 C.ar      1 UNK         0.0000
     34 H1          5.6440   -2.4120   -1.0230 H         1 UNK         0.0000
     35 H2          5.4870   -4.6830   -3.0580 H         1 UNK         0.0000
     36 H3          5.4890   -2.9470   -3.4500 H         1 UNK         0.0000
     37 H4          5.2950   -5.4220   -0.6410 H         1 UNK         0.0000
     38 H5          5.4250   -4.1920    0.6440 H         1 UNK         0.0000
     39 H6          7.7620   -3.8920   -3.6880 H         1 UNK         0.0000
     40 H7          7.7120   -2.7150   -2.3530 H         1 UNK         0.0000
     41 H8          8.9280   -4.6960   -1.6080 H         1 UNK         0.0000
     42 H9          7.5810   -5.7500   -2.1100 H         1 UNK         0.0000
     43 H10         6.2090   -4.1810    2.0660 H         1 UNK         0.0000
     44 H11         2.6690   -0.8130   -4.9790 H         1 UNK         0.0000
     45 H12         0.6210   -6.2540   -1.0440 H         1 UNK         0.0000
     46 H13         0.1500   -2.4790    0.9320 H         1 UNK         0.0000
     47 H14        -1.0520   -2.0570   -1.8860 H         1 UNK         0.0000
     48 H15        -1.1120   -3.2230   -3.0950 H         1 UNK         0.0000
     49 H16         7.4940   -4.4110    4.0920 H         1 UNK         0.0000
     50 H17         9.0470   -4.6570    3.0780 H         1 UNK         0.0000
     51 H18        -1.3680   -7.1070    0.1230 H         1 UNK         0.0000
     52 H19        -1.8430   -3.3400    2.0880 H         1 UNK         0.0000
     53 H20        -0.5540   -6.4510    2.9230 H         1 UNK         0.0000
     54 H21        -4.7600   -6.0350    3.5640 H         1 UNK         0.0000
     55 H22        -0.2870   -7.2580    5.2340 H         1 UNK         0.0000
     56 H23        -4.4860   -6.8530    5.8680 H         1 UNK         0.0000
     57 H24        -2.2510   -7.4600    6.7040 H         1 UNK         0.0000
@<TRIPOS>BOND
     1    1   16 2
     2    2   27 1
     3    2   28 1
     4    3   11 1
     5    3   13 1
     6    3   16 am
     7    4    5 1
     8    4    9 1
     9    4   14 1
    10    5   17 2
    11    6   14 ar
    12    6   21 ar
    13    7   18 ar
    14    7   21 ar
    15    8   18 1
    16    8   47 1
    17    8   48 1
    18    9   10 1
    19    9   11 1
    20    9   34 1
    21   10   12 1
    22   10   35 1
    23   10   36 1
    24   11   37 1
    25   11   38 1
    26   12   13 1
    27   12   39 1
    28   12   40 1
    29   13   41 1
    30   13   42 1
    31   14   15 ar
    32   15   17 1
    33   15   18 ar
    34   16   20 1
    35   17   19 1
    36   19   22 ar
    37   19   23 ar
    38   20   24 2
    39   20   43 1
    40   21   44 1
    41   22   25 ar
    42   22   45 1
    43   23   26 ar
    44   23   46 1
    45   24   49 1
    46   24   50 1
    47   25   27 ar
    48   25   51 1
    49   26   27 ar
    50   26   52 1
    51   28   29 ar
    52   28   30 ar
    53   29   31 ar
    54   29   53 1
    55   30   32 ar
    56   30   54 1
    57   31   33 ar
    58   31   55 1
    59   32   33 ar
    60   32   56 1
    61   33   57 1
