@<TRIPOS>MOLECULE
24821094
   57    61     0     0     0
SMALL
NO_CHARGES

@<TRIPOS>ATOM
      1 O1         -9.5360  -11.9160   15.9480 O.2       1 UNK         0.0000
      2 O2         -9.9080    0.2550   12.4690 O.3       1 UNK         0.0000
      3 N1        -10.1510   -9.9500   15.1160 N.am      1 UNK         0.0000
      4 N2        -10.7530   -7.4570   12.4120 N.pl3     1 UNK         0.0000
      5 N3        -10.6690   -6.1590   12.9270 N.2       1 UNK         0.0000
      6 N4        -10.6100   -8.3350   10.0910 N.ar      1 UNK         0.0000
      7 N5        -10.2660   -6.7330    8.4590 N.ar      1 UNK         0.0000
      8 N6        -10.0640   -4.4350    8.9500 N.pl3     1 UNK         0.0000
      9 C1        -10.9680   -8.6690   13.2050 C.3       1 UNK         0.0000
     10 C2        -12.3180   -8.5800   13.9200 C.3       1 UNK         0.0000
     11 C3         -9.8510   -8.8040   14.2460 C.3       1 UNK         0.0000
     12 C4        -12.5590   -9.8610   14.7220 C.3       1 UNK         0.0000
     13 C5        -11.4620  -10.0110   15.7760 C.3       1 UNK         0.0000
     14 C6        -10.6090   -7.4170   11.0580 C.ar      1 UNK         0.0000
     15 C7        -10.4240   -6.0670   10.7050 C.ar      1 UNK         0.0000
     16 C8         -9.2430  -10.9290   15.2990 C.2       1 UNK         0.0000
     17 C9        -10.4680   -5.3040   11.9520 C.2       1 UNK         0.0000
     18 C10       -10.2490   -5.7460    9.3490 C.ar      1 UNK         0.0000
     19 C11       -10.3210   -3.8350   12.0880 C.ar      1 UNK         0.0000
     20 C12        -7.9000  -10.8050   14.7140 C.2       1 UNK         0.0000
     21 C13       -10.4420   -7.9870    8.8340 C.ar      1 UNK         0.0000
     22 C14        -9.0540   -3.2530   12.0360 C.ar      1 UNK         0.0000
     23 C15       -11.4470   -3.0330   12.2640 C.ar      1 UNK         0.0000
     24 C16        -7.5060  -11.6520   13.7670 C.2       1 UNK         0.0000
     25 C17        -8.9200   -1.8870   12.1640 C.ar      1 UNK         0.0000
     26 C18       -11.3060   -1.6680   12.3960 C.ar      1 UNK         0.0000
     27 C19       -10.0430   -1.0910   12.3430 C.ar      1 UNK         0.0000
     28 C20       -10.0970    0.8030   13.6970 C.ar      1 UNK         0.0000
     29 C21        -9.1440    0.6290   14.6910 C.ar      1 UNK         0.0000
     30 C22       -11.2410    1.5440   13.9580 C.ar      1 UNK         0.0000
     31 C23        -9.3400    1.1890   15.9380 C.ar      1 UNK         0.0000
     32 C24       -11.4340    2.0970   15.2090 C.ar      1 UNK         0.0000
     33 C25       -10.4830    1.9220   16.1970 C.ar      1 UNK         0.0000
     34 H1        -10.9590   -9.5400   12.5490 H         1 UNK         0.0000
     35 H2        -12.3160   -7.7230   14.5940 H         1 UNK         0.0000
     36 H3        -13.1120   -8.4590   13.1820 H         1 UNK         0.0000
     37 H4         -9.7990   -7.8960   14.8460 H         1 UNK         0.0000
     38 H5         -8.9000   -8.9680   13.7420 H         1 UNK         0.0000
     39 H6        -13.5310   -9.8060   15.2130 H         1 UNK         0.0000
     40 H7        -12.5370  -10.7190   14.0520 H         1 UNK         0.0000
     41 H8        -11.5730  -10.9710   16.2800 H         1 UNK         0.0000
     42 H9        -11.5440   -9.2030   16.5020 H         1 UNK         0.0000
     43 H10        -7.2320  -10.0280   15.0550 H         1 UNK         0.0000
     44 H11       -10.4500   -8.7570    8.0780 H         1 UNK         0.0000
     45 H12        -8.1800   -3.8710   11.8950 H         1 UNK         0.0000
     46 H13       -12.4290   -3.4810   12.3000 H         1 UNK         0.0000
     47 H14        -9.4890   -3.8480    9.4660 H         1 UNK         0.0000
     48 H15       -10.5090   -4.1030    8.1550 H         1 UNK         0.0000
     49 H16        -6.5180  -11.5640   13.3400 H         1 UNK         0.0000
     50 H17        -8.1750  -12.4290   13.4260 H         1 UNK         0.0000
     51 H18        -7.9400   -1.4350   12.1230 H         1 UNK         0.0000
     52 H19       -12.1770   -1.0460   12.5370 H         1 UNK         0.0000
     53 H20        -8.2520    0.0560   14.4890 H         1 UNK         0.0000
     54 H21       -11.9810    1.6870   13.1850 H         1 UNK         0.0000
     55 H22        -8.5990    1.0540   16.7140 H         1 UNK         0.0000
     56 H23       -12.3260    2.6710   15.4140 H         1 UNK         0.0000
     57 H24       -10.6340    2.3590   17.1740 H         1 UNK         0.0000
@<TRIPOS>BOND
     1    1   16 2
     2    2   27 1
     3    2   28 1
     4    3   11 1
     5    3   13 1
     6    3   16 am
     7    4    5 1
     8    4    9 1
     9    4   14 1
    10    5   17 2
    11    6   14 ar
    12    6   21 ar
    13    7   18 ar
    14    7   21 ar
    15    8   18 1
    16    8   47 1
    17    8   48 1
    18    9   10 1
    19    9   11 1
    20    9   34 1
    21   10   12 1
    22   10   35 1
    23   10   36 1
    24   11   37 1
    25   11   38 1
    26   12   13 1
    27   12   39 1
    28   12   40 1
    29   13   41 1
    30   13   42 1
    31   14   15 ar
    32   15   17 1
    33   15   18 ar
    34   16   20 1
    35   17   19 1
    36   19   22 ar
    37   19   23 ar
    38   20   24 2
    39   20   43 1
    40   21   44 1
    41   22   25 ar
    42   22   45 1
    43   23   26 ar
    44   23   46 1
    45   24   49 1
    46   24   50 1
    47   25   27 ar
    48   25   51 1
    49   26   27 ar
    50   26   52 1
    51   28   29 ar
    52   28   30 ar
    53   29   31 ar
    54   29   53 1
    55   30   32 ar
    56   30   54 1
    57   31   33 ar
    58   31   55 1
    59   32   33 ar
    60   32   56 1
    61   33   57 1
