@<TRIPOS>MOLECULE
24821094
   57    61     0     0     0
SMALL
NO_CHARGES

@<TRIPOS>ATOM
      1 O1          3.3950   -3.0650   -8.7810 O.2       1 UNK         0.0000
      2 O2         -2.5980   -5.4850    1.7550 O.3       1 UNK         0.0000
      3 N1          2.9050   -2.8340   -6.6270 N.am      1 UNK         0.0000
      4 N2          3.2320   -3.5500   -2.9840 N.pl3     1 UNK         0.0000
      5 N3          1.9170   -3.7400   -2.5460 N.2       1 UNK         0.0000
      6 N4          5.4230   -3.9220   -1.8720 N.ar      1 UNK         0.0000
      7 N5          5.2970   -4.7440    0.2870 N.ar      1 UNK         0.0000
      8 N6          3.2470   -5.1970    1.3600 N.pl3     1 UNK         0.0000
      9 C1          3.6190   -3.0420   -4.3020 C.3       1 UNK         0.0000
     10 C2          3.7050   -1.5140   -4.2560 C.3       1 UNK         0.0000
     11 C3          2.5710   -3.4590   -5.3400 C.3       1 UNK         0.0000
     12 C4          4.1420   -0.9840   -5.6230 C.3       1 UNK         0.0000
     13 C5          3.1050   -1.3790   -6.6740 C.3       1 UNK         0.0000
     14 C6          4.0960   -3.9070   -1.9930 C.ar      1 UNK         0.0000
     15 C7          3.3150   -4.3380   -0.9040 C.ar      1 UNK         0.0000
     16 C8          3.0310   -3.5810   -7.7410 C.2       1 UNK         0.0000
     17 C9          1.9190   -4.2120   -1.3210 C.2       1 UNK         0.0000
     18 C10         3.9680   -4.7650    0.2630 C.ar      1 UNK         0.0000
     19 C11         0.7250   -4.5480   -0.5080 C.ar      1 UNK         0.0000
     20 C12         2.7290   -5.0200   -7.7000 C.2       1 UNK         0.0000
     21 C13         5.9910   -4.3310   -0.7590 C.ar      1 UNK         0.0000
     22 C14         0.2260   -5.8500   -0.5060 C.ar      1 UNK         0.0000
     23 C15         0.1040   -3.5640    0.2600 C.ar      1 UNK         0.0000
     24 C16         3.6010   -5.8970   -8.1900 C.2       1 UNK         0.0000
     25 C17        -0.8850   -6.1590    0.2500 C.ar      1 UNK         0.0000
     26 C18        -1.0090   -3.8790    1.0110 C.ar      1 UNK         0.0000
     27 C19        -1.5040   -5.1770    1.0110 C.ar      1 UNK         0.0000
     28 C20        -2.4000   -6.0230    2.9860 C.ar      1 UNK         0.0000
     29 C21        -3.4870   -6.3490    3.7860 C.ar      1 UNK         0.0000
     30 C22        -1.1110   -6.2540    3.4460 C.ar      1 UNK         0.0000
     31 C23        -3.2830   -6.8970    5.0370 C.ar      1 UNK         0.0000
     32 C24        -0.9130   -6.7980    4.7000 C.ar      1 UNK         0.0000
     33 C25        -1.9970   -7.1210    5.4940 C.ar      1 UNK         0.0000
     34 H1          4.5900   -3.4530   -4.5800 H         1 UNK         0.0000
     35 H2          2.7280   -1.1030   -4.0010 H         1 UNK         0.0000
     36 H3          4.4310   -1.2140   -3.5000 H         1 UNK         0.0000
     37 H4          1.5850   -3.1260   -5.0170 H         1 UNK         0.0000
     38 H5          2.5770   -4.5430   -5.4490 H         1 UNK         0.0000
     39 H6          4.2240    0.1020   -5.5830 H         1 UNK         0.0000
     40 H7          5.1070   -1.4130   -5.8880 H         1 UNK         0.0000
     41 H8          3.4630   -1.0910   -7.6630 H         1 UNK         0.0000
     42 H9          2.1630   -0.8730   -6.4620 H         1 UNK         0.0000
     43 H10         1.7980   -5.3640   -7.2750 H         1 UNK         0.0000
     44 H11         7.0690   -4.3300   -0.6960 H         1 UNK         0.0000
     45 H12         0.7080   -6.6150   -1.0960 H         1 UNK         0.0000
     46 H13         0.4920   -2.5560    0.2640 H         1 UNK         0.0000
     47 H14         2.6990   -4.5700    1.8570 H         1 UNK         0.0000
     48 H15         3.2890   -6.1270    1.6330 H         1 UNK         0.0000
     49 H16         3.3770   -6.9530   -8.1630 H         1 UNK         0.0000
     50 H17         4.5330   -5.5520   -8.6140 H         1 UNK         0.0000
     51 H18        -1.2720   -7.1670    0.2530 H         1 UNK         0.0000
     52 H19        -1.4940   -3.1170    1.6030 H         1 UNK         0.0000
     53 H20        -4.4910   -6.1740    3.4290 H         1 UNK         0.0000
     54 H21        -0.2630   -6.0070    2.8230 H         1 UNK         0.0000
     55 H22        -4.1280   -7.1500    5.6600 H         1 UNK         0.0000
     56 H23         0.0910   -6.9740    5.0590 H         1 UNK         0.0000
     57 H24        -1.8400   -7.5490    6.4730 H         1 UNK         0.0000
@<TRIPOS>BOND
     1    1   16 2
     2    2   27 1
     3    2   28 1
     4    3   11 1
     5    3   13 1
     6    3   16 am
     7    4    5 1
     8    4    9 1
     9    4   14 1
    10    5   17 2
    11    6   14 ar
    12    6   21 ar
    13    7   18 ar
    14    7   21 ar
    15    8   18 1
    16    8   47 1
    17    8   48 1
    18    9   10 1
    19    9   11 1
    20    9   34 1
    21   10   12 1
    22   10   35 1
    23   10   36 1
    24   11   37 1
    25   11   38 1
    26   12   13 1
    27   12   39 1
    28   12   40 1
    29   13   41 1
    30   13   42 1
    31   14   15 ar
    32   15   17 1
    33   15   18 ar
    34   16   20 1
    35   17   19 1
    36   19   22 ar
    37   19   23 ar
    38   20   24 2
    39   20   43 1
    40   21   44 1
    41   22   25 ar
    42   22   45 1
    43   23   26 ar
    44   23   46 1
    45   24   49 1
    46   24   50 1
    47   25   27 ar
    48   25   51 1
    49   26   27 ar
    50   26   52 1
    51   28   29 ar
    52   28   30 ar
    53   29   31 ar
    54   29   53 1
    55   30   32 ar
    56   30   54 1
    57   31   33 ar
    58   31   55 1
    59   32   33 ar
    60   32   56 1
    61   33   57 1
