@<TRIPOS>MOLECULE
24821094
   57    61     0     0     0
SMALL
NO_CHARGES

@<TRIPOS>ATOM
      1 O1         -7.8700   -4.9380   -1.6650 O.2       1 UNK         0.0000
      2 O2          4.2450   -4.8340   -1.1680 O.3       1 UNK         0.0000
      3 N1         -6.1450   -5.7440   -0.5230 N.am      1 UNK         0.0000
      4 N2         -3.0120   -5.5240    1.4850 N.pl3     1 UNK         0.0000
      5 N3         -1.9730   -5.2620    0.5860 N.2       1 UNK         0.0000
      6 N4         -3.0100   -6.3000    3.8460 N.ar      1 UNK         0.0000
      7 N5         -0.9140   -6.6540    4.7560 N.ar      1 UNK         0.0000
      8 N6          1.0780   -6.3060    3.5440 N.pl3     1 UNK         0.0000
      9 C1         -4.4410   -5.3900    1.1890 C.3       1 UNK         0.0000
     10 C2         -5.2400   -6.3320    2.0930 C.3       1 UNK         0.0000
     11 C3         -4.6960   -5.7580   -0.2770 C.3       1 UNK         0.0000
     12 C4         -6.7350   -6.1680    1.8070 C.3       1 UNK         0.0000
     13 C5         -7.0160   -6.5400    0.3520 C.3       1 UNK         0.0000
     14 C6         -2.4900   -5.9290    2.6760 C.ar      1 UNK         0.0000
     15 C7         -1.0890   -5.9180    2.5340 C.ar      1 UNK         0.0000
     16 C8         -6.6640   -5.0120   -1.5280 C.2       1 UNK         0.0000
     17 C9         -0.8160   -5.4760    1.1670 C.2       1 UNK         0.0000
     18 C10        -0.3010   -6.2990    3.6310 C.ar      1 UNK         0.0000
     19 C11         0.5210   -5.3060    0.5500 C.ar      1 UNK         0.0000
     20 C12        -5.7720   -4.3020   -2.4570 C.2       1 UNK         0.0000
     21 C13        -2.2310   -6.6500    4.8460 C.ar      1 UNK         0.0000
     22 C14         1.4610   -4.4600    1.1390 C.ar      1 UNK         0.0000
     23 C15         0.8450   -5.9970   -0.6170 C.ar      1 UNK         0.0000
     24 C16        -5.6940   -4.6870   -3.7280 C.2       1 UNK         0.0000
     25 C17         2.7030   -4.3040    0.5620 C.ar      1 UNK         0.0000
     26 C18         2.0870   -5.8330   -1.1920 C.ar      1 UNK         0.0000
     27 C19         3.0210   -4.9900   -0.6030 C.ar      1 UNK         0.0000
     28 C20         5.2590   -5.6200   -0.7210 C.ar      1 UNK         0.0000
     29 C21         6.4880   -5.0570   -0.4040 C.ar      1 UNK         0.0000
     30 C22         5.0670   -6.9870   -0.5730 C.ar      1 UNK         0.0000
     31 C23         7.5160   -5.8590    0.0510 C.ar      1 UNK         0.0000
     32 C24         6.1000   -7.7840   -0.1230 C.ar      1 UNK         0.0000
     33 C25         7.3230   -7.2210    0.1920 C.ar      1 UNK         0.0000
     34 H1         -4.7540   -4.3620    1.3650 H         1 UNK         0.0000
     35 H2         -4.9430   -7.3620    1.8980 H         1 UNK         0.0000
     36 H3         -5.0410   -6.0890    3.1360 H         1 UNK         0.0000
     37 H4         -4.3010   -6.7530   -0.4790 H         1 UNK         0.0000
     38 H5         -4.2090   -5.0310   -0.9260 H         1 UNK         0.0000
     39 H6         -7.3050   -6.8220    2.4670 H         1 UNK         0.0000
     40 H7         -7.0270   -5.1330    1.9790 H         1 UNK         0.0000
     41 H8         -8.0600   -6.3280    0.1180 H         1 UNK         0.0000
     42 H9         -6.8140   -7.6000    0.2030 H         1 UNK         0.0000
     43 H10        -5.1790   -3.4710   -2.1070 H         1 UNK         0.0000
     44 H11        -2.6880   -6.9450    5.7790 H         1 UNK         0.0000
     45 H12         1.2140   -3.9280    2.0460 H         1 UNK         0.0000
     46 H13         0.1210   -6.6570   -1.0730 H         1 UNK         0.0000
     47 H14         1.5090   -6.2950    2.6740 H         1 UNK         0.0000
     48 H15         1.6160   -6.3220    4.3510 H         1 UNK         0.0000
     49 H16        -5.0360   -4.1680   -4.4100 H         1 UNK         0.0000
     50 H17        -6.2890   -5.5180   -4.0780 H         1 UNK         0.0000
     51 H18         3.4310   -3.6490    1.0180 H         1 UNK         0.0000
     52 H19         2.3370   -6.3650   -2.0980 H         1 UNK         0.0000
     53 H20         6.6390   -3.9940   -0.5140 H         1 UNK         0.0000
     54 H21         4.1100   -7.4270   -0.8130 H         1 UNK         0.0000
     55 H22         8.4730   -5.4220    0.2980 H         1 UNK         0.0000
     56 H23         5.9520   -8.8480   -0.0120 H         1 UNK         0.0000
     57 H24         8.1290   -7.8460    0.5470 H         1 UNK         0.0000
@<TRIPOS>BOND
     1    1   16 2
     2    2   27 1
     3    2   28 1
     4    3   11 1
     5    3   13 1
     6    3   16 am
     7    4    5 1
     8    4    9 1
     9    4   14 1
    10    5   17 2
    11    6   14 ar
    12    6   21 ar
    13    7   18 ar
    14    7   21 ar
    15    8   18 1
    16    8   47 1
    17    8   48 1
    18    9   10 1
    19    9   11 1
    20    9   34 1
    21   10   12 1
    22   10   35 1
    23   10   36 1
    24   11   37 1
    25   11   38 1
    26   12   13 1
    27   12   39 1
    28   12   40 1
    29   13   41 1
    30   13   42 1
    31   14   15 ar
    32   15   17 1
    33   15   18 ar
    34   16   20 1
    35   17   19 1
    36   19   22 ar
    37   19   23 ar
    38   20   24 2
    39   20   43 1
    40   21   44 1
    41   22   25 ar
    42   22   45 1
    43   23   26 ar
    44   23   46 1
    45   24   49 1
    46   24   50 1
    47   25   27 ar
    48   25   51 1
    49   26   27 ar
    50   26   52 1
    51   28   29 ar
    52   28   30 ar
    53   29   31 ar
    54   29   53 1
    55   30   32 ar
    56   30   54 1
    57   31   33 ar
    58   31   55 1
    59   32   33 ar
    60   32   56 1
    61   33   57 1
