@<TRIPOS>MOLECULE
24821094
   57    61     0     0     0
SMALL
NO_CHARGES

@<TRIPOS>ATOM
      1 O1         -9.6200  -12.4680   15.5820 O.2       1 UNK         0.0000
      2 O2        -10.1130    0.1380   12.4010 O.3       1 UNK         0.0000
      3 N1         -9.4390  -10.9860   13.9370 N.am      1 UNK         0.0000
      4 N2         -9.2260   -7.5680   12.4660 N.pl3     1 UNK         0.0000
      5 N3         -9.1950   -6.2490   12.9310 N.2       1 UNK         0.0000
      6 N4         -9.9750   -8.5540   10.3110 N.ar      1 UNK         0.0000
      7 N5        -10.7650   -7.0280    8.7620 N.ar      1 UNK         0.0000
      8 N6        -10.8560   -4.7110    9.1860 N.pl3     1 UNK         0.0000
      9 C1         -8.7910   -8.7430   13.2260 C.3       1 UNK         0.0000
     10 C2         -7.5800   -9.3770   12.5370 C.3       1 UNK         0.0000
     11 C3         -9.9320   -9.7650   13.2860 C.3       1 UNK         0.0000
     12 C4         -7.1050  -10.5850   13.3480 C.3       1 UNK         0.0000
     13 C5         -8.2240  -11.6240   13.4130 C.3       1 UNK         0.0000
     14 C6         -9.7290   -7.5910   11.2000 C.ar      1 UNK         0.0000
     15 C7        -10.0180   -6.2590   10.8500 C.ar      1 UNK         0.0000
     16 C8        -10.0870  -11.5090   14.9970 C.2       1 UNK         0.0000
     17 C9         -9.6490   -5.4390   12.0030 C.2       1 UNK         0.0000
     18 C10       -10.5540   -6.0010    9.5780 C.ar      1 UNK         0.0000
     19 C11        -9.7720   -3.9650   12.1090 C.ar      1 UNK         0.0000
     20 C12       -11.3570  -10.9190   15.4470 C.2       1 UNK         0.0000
     21 C13       -10.4790   -8.2640    9.1310 C.ar      1 UNK         0.0000
     22 C14        -8.7010   -3.1480   11.7490 C.ar      1 UNK         0.0000
     23 C15       -10.9600   -3.3940   12.5620 C.ar      1 UNK         0.0000
     24 C16       -12.5020  -11.5590   15.2280 C.2       1 UNK         0.0000
     25 C17        -8.8180   -1.7780   11.8480 C.ar      1 UNK         0.0000
     26 C18       -11.0700   -2.0230   12.6630 C.ar      1 UNK         0.0000
     27 C19       -10.0010   -1.2110   12.3040 C.ar      1 UNK         0.0000
     28 C20       -10.1240    0.6910   13.6420 C.ar      1 UNK         0.0000
     29 C21       -11.2210    1.4300   14.0640 C.ar      1 UNK         0.0000
     30 C22        -9.0420    0.5130   14.4920 C.ar      1 UNK         0.0000
     31 C23       -11.2280    1.9900   15.3270 C.ar      1 UNK         0.0000
     32 C24        -9.0530    1.0790   15.7510 C.ar      1 UNK         0.0000
     33 C25       -10.1460    1.8150   16.1690 C.ar      1 UNK         0.0000
     34 H1         -8.5190   -8.4420   14.2380 H         1 UNK         0.0000
     35 H2         -7.8610   -9.7000   11.5340 H         1 UNK         0.0000
     36 H3         -6.7760   -8.6450   12.4700 H         1 UNK         0.0000
     37 H4        -10.2670   -9.9990   12.2760 H         1 UNK         0.0000
     38 H5        -10.7600   -9.3530   13.8620 H         1 UNK         0.0000
     39 H6         -6.2290  -11.0230   12.8690 H         1 UNK         0.0000
     40 H7         -6.8470  -10.2670   14.3570 H         1 UNK         0.0000
     41 H8         -7.9250  -12.4380   14.0730 H         1 UNK         0.0000
     42 H9         -8.4160  -12.0120   12.4130 H         1 UNK         0.0000
     43 H10       -11.3600   -9.9650   15.9520 H         1 UNK         0.0000
     44 H11       -10.6670   -9.0690    8.4360 H         1 UNK         0.0000
     45 H12        -7.7810   -3.5880   11.3930 H         1 UNK         0.0000
     46 H13       -11.7930   -4.0250   12.8360 H         1 UNK         0.0000
     47 H14       -10.2920   -4.2560    8.5410 H         1 UNK         0.0000
     48 H15       -11.6320   -4.2600    9.5550 H         1 UNK         0.0000
     49 H16       -13.4350  -11.1240   15.5540 H         1 UNK         0.0000
     50 H17       -12.4980  -12.5140   14.7230 H         1 UNK         0.0000
     51 H18        -7.9890   -1.1430   11.5700 H         1 UNK         0.0000
     52 H19       -11.9880   -1.5790   13.0180 H         1 UNK         0.0000
     53 H20       -12.0660    1.5670   13.4060 H         1 UNK         0.0000
     54 H21        -8.1900   -0.0670   14.1670 H         1 UNK         0.0000
     55 H22       -12.0810    2.5660   15.6570 H         1 UNK         0.0000
     56 H23        -8.2090    0.9440   16.4110 H         1 UNK         0.0000
     57 H24       -10.1550    2.2550   17.1560 H         1 UNK         0.0000
@<TRIPOS>BOND
     1    1   16 2
     2    2   27 1
     3    2   28 1
     4    3   11 1
     5    3   13 1
     6    3   16 am
     7    4    5 1
     8    4    9 1
     9    4   14 1
    10    5   17 2
    11    6   14 ar
    12    6   21 ar
    13    7   18 ar
    14    7   21 ar
    15    8   18 1
    16    8   47 1
    17    8   48 1
    18    9   10 1
    19    9   11 1
    20    9   34 1
    21   10   12 1
    22   10   35 1
    23   10   36 1
    24   11   37 1
    25   11   38 1
    26   12   13 1
    27   12   39 1
    28   12   40 1
    29   13   41 1
    30   13   42 1
    31   14   15 ar
    32   15   17 1
    33   15   18 ar
    34   16   20 1
    35   17   19 1
    36   19   22 ar
    37   19   23 ar
    38   20   24 2
    39   20   43 1
    40   21   44 1
    41   22   25 ar
    42   22   45 1
    43   23   26 ar
    44   23   46 1
    45   24   49 1
    46   24   50 1
    47   25   27 ar
    48   25   51 1
    49   26   27 ar
    50   26   52 1
    51   28   29 ar
    52   28   30 ar
    53   29   31 ar
    54   29   53 1
    55   30   32 ar
    56   30   54 1
    57   31   33 ar
    58   31   55 1
    59   32   33 ar
    60   32   56 1
    61   33   57 1
