@<TRIPOS>MOLECULE
10302451
   70    75     0     0     0
SMALL
NO_CHARGES

@<TRIPOS>ATOM
      1 Cl1        13.2080   -4.9120   -9.4580 Cl        1 UNK         0.0000
      2 O1         10.8710   -3.8880  -13.1190 O.3       1 UNK         0.0000
      3 O2          9.8260   -0.4540  -15.1870 O.3       1 UNK         0.0000
      4 O3          8.2630   -7.7250  -14.1490 O.3       1 UNK         0.0000
      5 O4         10.7930   -0.3000   -9.8970 O.3       1 UNK         0.0000
      6 O5         12.0620    0.7170   -8.3210 O.3       1 UNK         0.0000
      7 N1          5.5160   -8.6190  -12.8460 N.3       1 UNK         0.0000
      8 N2          3.4200   -8.2880  -10.9480 N.3       1 UNK         0.0000
      9 N3         11.1400   -3.1740  -10.6990 N.pl3     1 UNK         0.0000
     10 N4          8.7860   -6.3640   -9.6170 N.ar      1 UNK         0.0000
     11 N5         10.0490   -4.4990   -9.0850 N.ar      1 UNK         0.0000
     12 C1          4.6040   -9.7280  -12.5350 C.3       1 UNK         0.0000
     13 C2          4.8370   -7.3240  -12.6960 C.3       1 UNK         0.0000
     14 C3          4.1000   -9.5830  -11.0980 C.3       1 UNK         0.0000
     15 C4          4.3330   -7.1790  -11.2590 C.3       1 UNK         0.0000
     16 C5          6.0810   -8.7630  -14.1950 C.3       1 UNK         0.0000
     17 C6         10.3460   -3.0590  -14.1580 C.3       1 UNK         0.0000
     18 C7          9.2350   -2.1700  -13.5910 C.3       1 UNK         0.0000
     19 C8         11.4620   -2.1700  -14.7170 C.3       1 UNK         0.0000
     20 C9          6.9040   -7.5200  -14.5390 C.3       1 UNK         0.0000
     21 C10         2.8550   -8.1430   -9.6000 C.3       1 UNK         0.0000
     22 C11         8.7330   -1.2300  -14.6910 C.3       1 UNK         0.0000
     23 C12        10.8740   -1.2300  -15.7730 C.3       1 UNK         0.0000
     24 C13        10.0980   -4.9280  -12.7120 C.ar      1 UNK         0.0000
     25 C14         8.7740   -6.8740  -13.2220 C.ar      1 UNK         0.0000
     26 C15         9.8330   -5.1170  -11.3440 C.ar      1 UNK         0.0000
     27 C16         9.5700   -5.8040  -13.6340 C.ar      1 UNK         0.0000
     28 C17         9.0250   -6.2040  -10.9280 C.ar      1 UNK         0.0000
     29 C18         8.4960   -7.0760  -11.8850 C.ar      1 UNK         0.0000
     30 C19        10.3480   -4.2510  -10.3550 C.ar      1 UNK         0.0000
     31 C20        11.9210   -2.5400   -9.7250 C.ar      1 UNK         0.0000
     32 C21         9.2910   -5.5270   -8.7410 C.ar      1 UNK         0.0000
     33 C22        11.6980   -1.2010   -9.4150 C.ar      1 UNK         0.0000
     34 C23        12.4740   -0.5790   -8.4440 C.ar      1 UNK         0.0000
     35 C24        12.9240   -3.2450   -9.0690 C.ar      1 UNK         0.0000
     36 C25        13.4720   -1.2900   -7.7940 C.ar      1 UNK         0.0000
     37 C26        13.6940   -2.6180   -8.1070 C.ar      1 UNK         0.0000
     38 C27        10.7570    0.7650   -8.9290 C.3       1 UNK         0.0000
     39 H1          5.1340  -10.6750  -12.6410 H         1 UNK         0.0000
     40 H2          3.7580   -9.7060  -13.2220 H         1 UNK         0.0000
     41 H3          3.9940   -7.2740  -13.3850 H         1 UNK         0.0000
     42 H4          5.5370   -6.5180  -12.9190 H         1 UNK         0.0000
     43 H5          4.9440   -9.6330  -10.4100 H         1 UNK         0.0000
     44 H6          3.4000  -10.3880  -10.8750 H         1 UNK         0.0000
     45 H7          3.8030   -6.2320  -11.1530 H         1 UNK         0.0000
     46 H8          5.1790   -7.2010  -10.5720 H         1 UNK         0.0000
     47 H9          6.7240   -9.6430  -14.2270 H         1 UNK         0.0000
     48 H10         5.2740   -8.8760  -14.9170 H         1 UNK         0.0000
     49 H11         9.9420   -3.6840  -14.9560 H         1 UNK         0.0000
     50 H12         8.4120   -2.7940  -13.2420 H         1 UNK         0.0000
     51 H13         9.6260   -1.5830  -12.7600 H         1 UNK         0.0000
     52 H14        11.8980   -1.5830  -13.9080 H         1 UNK         0.0000
     53 H15        12.2300   -2.7930  -15.1720 H         1 UNK         0.0000
     54 H16         6.8570   -7.3390  -15.6120 H         1 UNK         0.0000
     55 H17         6.4990   -6.6580  -14.0080 H         1 UNK         0.0000
     56 H18         2.6710   -9.1290   -9.1750 H         1 UNK         0.0000
     57 H19         3.5590   -7.6010   -8.9680 H         1 UNK         0.0000
     58 H20         1.9170   -7.5900   -9.6560 H         1 UNK         0.0000
     59 H21         8.3050   -1.8170  -15.5040 H         1 UNK         0.0000
     60 H22         7.9720   -0.5660  -14.2820 H         1 UNK         0.0000
     61 H23        10.4740   -1.8170  -16.5990 H         1 UNK         0.0000
     62 H24        11.6550   -0.5650  -16.1430 H         1 UNK         0.0000
     63 H25         9.7730   -5.6610  -14.6850 H         1 UNK         0.0000
     64 H26         7.8750   -7.9050  -11.5800 H         1 UNK         0.0000
     65 H27        11.1540   -2.8560  -11.6150 H         1 UNK         0.0000
     66 H28         9.0790   -5.6850   -7.6940 H         1 UNK         0.0000
     67 H29        14.0770   -0.8050   -7.0440 H         1 UNK         0.0000
     68 H30        14.4730   -3.1680   -7.5990 H         1 UNK         0.0000
     69 H31         9.9820    0.5820   -8.1860 H         1 UNK         0.0000
     70 H32        10.5980    1.7260   -9.4190 H         1 UNK         0.0000
@<TRIPOS>BOND
     1    1   35 1
     2    2   17 1
     3    2   24 1
     4    3   22 1
     5    3   23 1
     6    4   20 1
     7    4   25 1
     8    5   33 1
     9    5   38 1
    10    6   34 1
    11    6   38 1
    12    7   12 1
    13    7   13 1
    14    7   16 1
    15    8   14 1
    16    8   15 1
    17    8   21 1
    18    9   30 1
    19    9   31 1
    20    9   65 1
    21   10   28 ar
    22   10   32 ar
    23   11   30 ar
    24   11   32 ar
    25   12   14 1
    26   12   39 1
    27   12   40 1
    28   13   15 1
    29   13   41 1
    30   13   42 1
    31   14   43 1
    32   14   44 1
    33   15   45 1
    34   15   46 1
    35   16   20 1
    36   16   47 1
    37   16   48 1
    38   17   18 1
    39   17   19 1
    40   17   49 1
    41   18   22 1
    42   18   50 1
    43   18   51 1
    44   19   23 1
    45   19   52 1
    46   19   53 1
    47   20   54 1
    48   20   55 1
    49   21   56 1
    50   21   57 1
    51   21   58 1
    52   22   59 1
    53   22   60 1
    54   23   61 1
    55   23   62 1
    56   24   26 ar
    57   24   27 ar
    58   25   27 ar
    59   25   29 ar
    60   26   28 ar
    61   26   30 ar
    62   27   63 1
    63   28   29 ar
    64   29   64 1
    65   31   33 ar
    66   31   35 ar
    67   32   66 1
    68   33   34 ar
    69   34   36 ar
    70   35   37 ar
    71   36   37 ar
    72   36   67 1
    73   37   68 1
    74   38   69 1
    75   38   70 1
