@<TRIPOS>MOLECULE
10302451
   70    75     0     0     0
SMALL
NO_CHARGES

@<TRIPOS>ATOM
      1 Cl1       -10.6540    3.4660    1.5290 Cl        1 UNK         0.0000
      2 O1         -7.7450   -0.2380    3.8790 O.3       1 UNK         0.0000
      3 O2         -4.5570    2.1290    5.0610 O.3       1 UNK         0.0000
      4 O3         -6.2870   -4.3920    2.0900 O.3       1 UNK         0.0000
      5 O4        -11.1920   -0.2970    5.1130 O.3       1 UNK         0.0000
      6 O5        -13.0860    0.5710    6.0020 O.3       1 UNK         0.0000
      7 N1         -5.4660   -6.8870    2.8790 N.3       1 UNK         0.0000
      8 N2         -3.6840   -8.2250    4.6510 N.3       1 UNK         0.0000
      9 N3         -9.7160    0.9570    2.8160 N.pl3     1 UNK         0.0000
     10 N4         -9.9830   -2.1300    0.1170 N.ar      1 UNK         0.0000
     11 N5        -10.7150   -0.1050    0.9660 N.ar      1 UNK         0.0000
     12 C1         -4.4980   -7.8670    2.3700 C.3       1 UNK         0.0000
     13 C2         -5.8810   -7.2220    4.2490 C.3       1 UNK         0.0000
     14 C3         -3.2690   -7.8890    3.2820 C.3       1 UNK         0.0000
     15 C4         -4.6530   -7.2440    5.1610 C.3       1 UNK         0.0000
     16 C5         -6.6290   -6.7820    1.9880 C.3       1 UNK         0.0000
     17 C6         -6.4160    0.1260    4.2580 C.3       1 UNK         0.0000
     18 C7         -5.8690    1.1650    3.2750 C.3       1 UNK         0.0000
     19 C8         -6.4320    0.7280    5.6660 C.3       1 UNK         0.0000
     20 C9         -6.5490   -5.4750    1.1960 C.3       1 UNK         0.0000
     21 C10        -2.5220   -8.3300    5.5430 C.3       1 UNK         0.0000
     22 C11        -4.4760    1.6070    3.7340 C.3       1 UNK         0.0000
     23 C12        -5.0170    1.1870    6.0320 C.3       1 UNK         0.0000
     24 C13        -7.8740   -1.2330    2.9650 C.ar      1 UNK         0.0000
     25 C14        -7.1430   -3.3380    2.0500 C.ar      1 UNK         0.0000
     26 C15        -8.8840   -1.1700    1.9890 C.ar      1 UNK         0.0000
     27 C16        -7.0180   -2.3120    2.9870 C.ar      1 UNK         0.0000
     28 C17        -9.0110   -2.2140    1.0400 C.ar      1 UNK         0.0000
     29 C18        -8.1250   -3.2950    1.0800 C.ar      1 UNK         0.0000
     30 C19        -9.7910   -0.0890    1.9190 C.ar      1 UNK         0.0000
     31 C20       -10.8870    1.4890    3.3710 C.ar      1 UNK         0.0000
     32 C21       -10.7980   -1.1010    0.1000 C.ar      1 UNK         0.0000
     33 C22       -11.5130    0.8420    4.4320 C.ar      1 UNK         0.0000
     34 C23       -12.6720    1.3780    4.9810 C.ar      1 UNK         0.0000
     35 C24       -11.4290    2.6610    2.8570 C.ar      1 UNK         0.0000
     36 C25       -13.2060    2.5490    4.4630 C.ar      1 UNK         0.0000
     37 C26       -12.5850    3.1860    3.4050 C.ar      1 UNK         0.0000
     38 C27       -11.9420   -0.2370    6.3410 C.3       1 UNK         0.0000
     39 H1         -4.1960   -7.5900    1.3600 H         1 UNK         0.0000
     40 H2         -4.9560   -8.8560    2.3540 H         1 UNK         0.0000
     41 H3         -6.3560   -8.2030    4.2540 H         1 UNK         0.0000
     42 H4         -6.5880   -6.4740    4.6080 H         1 UNK         0.0000
     43 H5         -2.7950   -6.9070    3.2760 H         1 UNK         0.0000
     44 H6         -2.5630   -8.6370    2.9220 H         1 UNK         0.0000
     45 H7         -4.9540   -7.5210    6.1710 H         1 UNK         0.0000
     46 H8         -4.1940   -6.2550    5.1770 H         1 UNK         0.0000
     47 H9         -6.6330   -7.6250    1.2960 H         1 UNK         0.0000
     48 H10        -7.5430   -6.7930    2.5800 H         1 UNK         0.0000
     49 H11        -5.7780   -0.7590    4.2460 H         1 UNK         0.0000
     50 H12        -5.8020    0.7260    2.2800 H         1 UNK         0.0000
     51 H13        -6.5340    2.0280    3.2490 H         1 UNK         0.0000
     52 H14        -7.1090    1.5830    5.6880 H         1 UNK         0.0000
     53 H15        -6.7670   -0.0230    6.3800 H         1 UNK         0.0000
     54 H16        -5.7470   -5.5430    0.4630 H         1 UNK         0.0000
     55 H17        -7.4960   -5.3030    0.6840 H         1 UNK         0.0000
     56 H18        -2.6930   -9.1220    6.2710 H         1 UNK         0.0000
     57 H19        -1.6340   -8.5620    4.9560 H         1 UNK         0.0000
     58 H20        -2.3760   -7.3830    6.0620 H         1 UNK         0.0000
     59 H21        -3.8000    0.7510    3.7200 H         1 UNK         0.0000
     60 H22        -4.0990    2.3780    3.0620 H         1 UNK         0.0000
     61 H23        -4.3490    0.3260    6.0490 H         1 UNK         0.0000
     62 H24        -5.0310    1.6560    7.0170 H         1 UNK         0.0000
     63 H25        -6.2410   -2.3630    3.7350 H         1 UNK         0.0000
     64 H26        -8.2100   -4.0940    0.3580 H         1 UNK         0.0000
     65 H27        -8.8530    1.3240    3.0610 H         1 UNK         0.0000
     66 H28       -11.5690   -1.0660   -0.6550 H         1 UNK         0.0000
     67 H29       -14.1080    2.9630    4.8860 H         1 UNK         0.0000
     68 H30       -13.0040    4.0980    3.0050 H         1 UNK         0.0000
     69 H31       -11.3560    0.2410    7.1250 H         1 UNK         0.0000
     70 H32       -12.2560   -1.2330    6.6500 H         1 UNK         0.0000
@<TRIPOS>BOND
     1    1   35 1
     2    2   17 1
     3    2   24 1
     4    3   22 1
     5    3   23 1
     6    4   20 1
     7    4   25 1
     8    5   33 1
     9    5   38 1
    10    6   34 1
    11    6   38 1
    12    7   12 1
    13    7   13 1
    14    7   16 1
    15    8   14 1
    16    8   15 1
    17    8   21 1
    18    9   30 1
    19    9   31 1
    20    9   65 1
    21   10   28 ar
    22   10   32 ar
    23   11   30 ar
    24   11   32 ar
    25   12   14 1
    26   12   39 1
    27   12   40 1
    28   13   15 1
    29   13   41 1
    30   13   42 1
    31   14   43 1
    32   14   44 1
    33   15   45 1
    34   15   46 1
    35   16   20 1
    36   16   47 1
    37   16   48 1
    38   17   18 1
    39   17   19 1
    40   17   49 1
    41   18   22 1
    42   18   50 1
    43   18   51 1
    44   19   23 1
    45   19   52 1
    46   19   53 1
    47   20   54 1
    48   20   55 1
    49   21   56 1
    50   21   57 1
    51   21   58 1
    52   22   59 1
    53   22   60 1
    54   23   61 1
    55   23   62 1
    56   24   26 ar
    57   24   27 ar
    58   25   27 ar
    59   25   29 ar
    60   26   28 ar
    61   26   30 ar
    62   27   63 1
    63   28   29 ar
    64   29   64 1
    65   31   33 ar
    66   31   35 ar
    67   32   66 1
    68   33   34 ar
    69   34   36 ar
    70   35   37 ar
    71   36   37 ar
    72   36   67 1
    73   37   68 1
    74   38   69 1
    75   38   70 1
