@<TRIPOS>MOLECULE
10302451
   70    75     0     0     0
SMALL
NO_CHARGES

@<TRIPOS>ATOM
      1 Cl1        -5.9480    1.1890    2.6130 Cl        1 UNK         0.0000
      2 O1         -7.7060   -1.3520    4.5080 O.3       1 UNK         0.0000
      3 O2         -6.4970   -4.1050    1.6590 O.3       1 UNK         0.0000
      4 O3        -12.4310   -0.8540    4.4060 O.3       1 UNK         0.0000
      5 O4         -4.2240    1.2650    7.5440 O.3       1 UNK         0.0000
      6 O5         -2.3220    2.3930    7.0520 O.3       1 UNK         0.0000
      7 N1        -11.9210    0.0920    1.2400 N.3       1 UNK         0.0000
      8 N2         -9.2000    0.5830    0.5630 N.3       1 UNK         0.0000
      9 N3         -6.2760    0.5030    5.4860 N.pl3     1 UNK         0.0000
     10 N4         -9.7230    2.6090    6.2370 N.ar      1 UNK         0.0000
     11 N5         -7.4200    2.3950    6.2990 N.ar      1 UNK         0.0000
     12 C1        -10.9610   -1.0160    1.1400 C.3       1 UNK         0.0000
     13 C2        -11.2520    1.3280    1.6700 C.3       1 UNK         0.0000
     14 C3         -9.8690   -0.6520    0.1320 C.3       1 UNK         0.0000
     15 C4        -10.1600    1.6920    0.6630 C.3       1 UNK         0.0000
     16 C5        -13.0280   -0.2490    2.1440 C.3       1 UNK         0.0000
     17 C6         -7.7840   -2.2680    3.4150 C.3       1 UNK         0.0000
     18 C7         -6.8620   -1.8000    2.2850 C.3       1 UNK         0.0000
     19 C8         -7.3400   -3.6590    3.8800 C.3       1 UNK         0.0000
     20 C9        -12.5900   -1.3740    3.0850 C.3       1 UNK         0.0000
     21 C10        -8.0930    0.9250   -0.3400 C.3       1 UNK         0.0000
     22 C11        -6.8920   -2.8290    1.1520 C.3       1 UNK         0.0000
     23 C12        -7.3510   -4.6160    2.6840 C.3       1 UNK         0.0000
     24 C13        -8.8160   -0.6170    4.7760 C.ar      1 UNK         0.0000
     25 C14       -11.2100   -0.3540    4.7290 C.ar      1 UNK         0.0000
     26 C15        -8.6980    0.6460    5.3820 C.ar      1 UNK         0.0000
     27 C16       -10.0650   -1.1040    4.4580 C.ar      1 UNK         0.0000
     28 C17        -9.8620    1.4050    5.6580 C.ar      1 UNK         0.0000
     29 C18       -11.1180    0.8910    5.3190 C.ar      1 UNK         0.0000
     30 C19        -7.4440    1.1950    5.7310 C.ar      1 UNK         0.0000
     31 C20        -5.0980    1.2000    5.1880 C.ar      1 UNK         0.0000
     32 C21        -8.5320    3.0690    6.5390 C.ar      1 UNK         0.0000
     33 C22        -4.2010    1.5190    6.2030 C.ar      1 UNK         0.0000
     34 C23        -3.0320    2.2070    5.8990 C.ar      1 UNK         0.0000
     35 C24        -4.8270    1.5790    3.8790 C.ar      1 UNK         0.0000
     36 C25        -2.7680    2.5810    4.5890 C.ar      1 UNK         0.0000
     37 C26        -3.6640    2.2670    3.5850 C.ar      1 UNK         0.0000
     38 C27        -2.8690    1.4520    7.9950 C.3       1 UNK         0.0000
     39 H1        -11.4790   -1.9160    0.8070 H         1 UNK         0.0000
     40 H2        -10.5100   -1.1950    2.1160 H         1 UNK         0.0000
     41 H3        -10.8040    1.1750    2.6530 H         1 UNK         0.0000
     42 H4        -11.9810    2.1370    1.7250 H         1 UNK         0.0000
     43 H5        -10.3180   -0.4990   -0.8510 H         1 UNK         0.0000
     44 H6         -9.1400   -1.4610    0.0780 H         1 UNK         0.0000
     45 H7         -9.6420    2.5920    0.9950 H         1 UNK         0.0000
     46 H8        -10.6110    1.8710   -0.3140 H         1 UNK         0.0000
     47 H9        -13.3010    0.6280    2.7310 H         1 UNK         0.0000
     48 H10       -13.8860   -0.5780    1.5600 H         1 UNK         0.0000
     49 H11        -8.8120   -2.3170    3.0510 H         1 UNK         0.0000
     50 H12        -7.2060   -0.8360    1.9110 H         1 UNK         0.0000
     51 H13        -5.8440   -1.7030    2.6630 H         1 UNK         0.0000
     52 H14        -6.3310   -3.5990    4.2890 H         1 UNK         0.0000
     53 H15        -8.0240   -4.0230    4.6440 H         1 UNK         0.0000
     54 H16       -13.3470   -2.1570    3.0910 H         1 UNK         0.0000
     55 H17       -11.6420   -1.7870    2.7400 H         1 UNK         0.0000
     56 H18        -7.2100    0.3480   -0.0680 H         1 UNK         0.0000
     57 H19        -8.3770    0.6920   -1.3670 H         1 UNK         0.0000
     58 H20        -7.8720    1.9890   -0.2580 H         1 UNK         0.0000
     59 H21        -7.9030   -2.8950    0.7470 H         1 UNK         0.0000
     60 H22        -6.2050   -2.5220    0.3630 H         1 UNK         0.0000
     61 H23        -8.3670   -4.7050    2.3010 H         1 UNK         0.0000
     62 H24        -6.9940   -5.5960    3.0000 H         1 UNK         0.0000
     63 H25       -10.1580   -2.0740    3.9920 H         1 UNK         0.0000
     64 H26       -12.0110    1.4630    5.5210 H         1 UNK         0.0000
     65 H27        -6.2700   -0.4670    5.5190 H         1 UNK         0.0000
     66 H28        -8.4570    4.0400    7.0050 H         1 UNK         0.0000
     67 H29        -1.8630    3.1200    4.3550 H         1 UNK         0.0000
     68 H30        -3.4550    2.5610    2.5670 H         1 UNK         0.0000
     69 H31        -2.3200    0.5120    7.9590 H         1 UNK         0.0000
     70 H32        -2.8530    1.8670    9.0030 H         1 UNK         0.0000
@<TRIPOS>BOND
     1    1   35 1
     2    2   17 1
     3    2   24 1
     4    3   22 1
     5    3   23 1
     6    4   20 1
     7    4   25 1
     8    5   33 1
     9    5   38 1
    10    6   34 1
    11    6   38 1
    12    7   12 1
    13    7   13 1
    14    7   16 1
    15    8   14 1
    16    8   15 1
    17    8   21 1
    18    9   30 1
    19    9   31 1
    20    9   65 1
    21   10   28 ar
    22   10   32 ar
    23   11   30 ar
    24   11   32 ar
    25   12   14 1
    26   12   39 1
    27   12   40 1
    28   13   15 1
    29   13   41 1
    30   13   42 1
    31   14   43 1
    32   14   44 1
    33   15   45 1
    34   15   46 1
    35   16   20 1
    36   16   47 1
    37   16   48 1
    38   17   18 1
    39   17   19 1
    40   17   49 1
    41   18   22 1
    42   18   50 1
    43   18   51 1
    44   19   23 1
    45   19   52 1
    46   19   53 1
    47   20   54 1
    48   20   55 1
    49   21   56 1
    50   21   57 1
    51   21   58 1
    52   22   59 1
    53   22   60 1
    54   23   61 1
    55   23   62 1
    56   24   26 ar
    57   24   27 ar
    58   25   27 ar
    59   25   29 ar
    60   26   28 ar
    61   26   30 ar
    62   27   63 1
    63   28   29 ar
    64   29   64 1
    65   31   33 ar
    66   31   35 ar
    67   32   66 1
    68   33   34 ar
    69   34   36 ar
    70   35   37 ar
    71   36   37 ar
    72   36   67 1
    73   37   68 1
    74   38   69 1
    75   38   70 1
