@<TRIPOS>MOLECULE
10302451
   70    75     0     0     0
SMALL
NO_CHARGES

@<TRIPOS>ATOM
      1 Cl1         7.1040   -8.6230  -10.1990 Cl        1 UNK         0.0000
      2 O1          5.9350   -5.1820   -9.2580 O.3       1 UNK         0.0000
      3 O2         10.0570   -4.9720   -9.6080 O.3       1 UNK         0.0000
      4 O3          4.7400   -5.6330   -4.6800 O.3       1 UNK         0.0000
      5 O4          3.9010   -6.5940  -13.7930 O.3       1 UNK         0.0000
      6 O5          4.7080   -7.8610  -15.4880 O.3       1 UNK         0.0000
      7 N1          6.4030   -3.8770   -2.9210 N.3       1 UNK         0.0000
      8 N2          6.2640   -1.3210   -1.6760 N.3       1 UNK         0.0000
      9 N3          4.9250   -6.7570  -10.9730 N.pl3     1 UNK         0.0000
     10 N4          2.8600   -8.5730   -7.9200 N.ar      1 UNK         0.0000
     11 N5          3.4240   -8.3780  -10.1560 N.ar      1 UNK         0.0000
     12 C1          5.7320   -2.7530   -3.5880 C.3       1 UNK         0.0000
     13 C2          7.4960   -3.4000   -2.0630 C.3       1 UNK         0.0000
     14 C3          5.1700   -1.7980   -2.5330 C.3       1 UNK         0.0000
     15 C4          6.9350   -2.4450   -1.0080 C.3       1 UNK         0.0000
     16 C5          6.8920   -4.8560   -3.9010 C.3       1 UNK         0.0000
     17 C6          7.2840   -5.6060   -9.4620 C.3       1 UNK         0.0000
     18 C7          7.8820   -4.8530  -10.6540 C.3       1 UNK         0.0000
     19 C8          8.1120   -5.3000   -8.2110 C.3       1 UNK         0.0000
     20 C9          5.9170   -6.0330   -3.9760 C.3       1 UNK         0.0000
     21 C10         5.7760   -0.3420   -0.6950 C.3       1 UNK         0.0000
     22 C11         9.3510   -5.2550  -10.8170 C.3       1 UNK         0.0000
     23 C12         9.5720   -5.6850   -8.4680 C.3       1 UNK         0.0000
     24 C13         5.2310   -5.8150   -8.2840 C.ar      1 UNK         0.0000
     25 C14         4.6190   -6.0530   -5.9670 C.ar      1 UNK         0.0000
     26 C15         4.3880   -6.8920   -8.6080 C.ar      1 UNK         0.0000
     27 C16         5.3380   -5.4070   -6.9730 C.ar      1 UNK         0.0000
     28 C17         3.6580   -7.5470   -7.5850 C.ar      1 UNK         0.0000
     29 C18         3.7890   -7.1160   -6.2610 C.ar      1 UNK         0.0000
     30 C19         4.2400   -7.3530   -9.9350 C.ar      1 UNK         0.0000
     31 C20         5.4200   -7.5370  -12.0260 C.ar      1 UNK         0.0000
     32 C21         2.7610   -8.9590   -9.1700 C.ar      1 UNK         0.0000
     33 C22         4.8860   -7.4030  -13.3040 C.ar      1 UNK         0.0000
     34 C23         5.3850   -8.1770  -14.3450 C.ar      1 UNK         0.0000
     35 C24         6.4420   -8.4500  -11.7940 C.ar      1 UNK         0.0000
     36 C25         6.4060   -9.0860  -14.1050 C.ar      1 UNK         0.0000
     37 C26         6.9300   -9.2200  -12.8330 C.ar      1 UNK         0.0000
     38 C27         4.0760   -6.5940  -15.2220 C.3       1 UNK         0.0000
     39 H1          4.9180   -3.1310   -4.2080 H         1 UNK         0.0000
     40 H2          6.4490   -2.2220   -4.2150 H         1 UNK         0.0000
     41 H3          8.2340   -2.8770   -2.6720 H         1 UNK         0.0000
     42 H4          7.9690   -4.2500   -1.5700 H         1 UNK         0.0000
     43 H5          4.4330   -2.3220   -1.9240 H         1 UNK         0.0000
     44 H6          4.6980   -0.9480   -3.0260 H         1 UNK         0.0000
     45 H7          7.7480   -2.0670   -0.3880 H         1 UNK         0.0000
     46 H8          6.2170   -2.9760   -0.3810 H         1 UNK         0.0000
     47 H9          6.9650   -4.3830   -4.8810 H         1 UNK         0.0000
     48 H10         7.8740   -5.2160   -3.5970 H         1 UNK         0.0000
     49 H11         7.3040   -6.6790   -9.6610 H         1 UNK         0.0000
     50 H12         7.3320   -5.1090  -11.5600 H         1 UNK         0.0000
     51 H13         7.8160   -3.7800  -10.4780 H         1 UNK         0.0000
     52 H14         8.0500   -4.2350   -7.9850 H         1 UNK         0.0000
     53 H15         7.7270   -5.8750   -7.3700 H         1 UNK         0.0000
     54 H16         6.3900   -6.8630   -4.5000 H         1 UNK         0.0000
     55 H17         5.6490   -6.3470   -2.9670 H         1 UNK         0.0000
     56 H18         4.7640   -0.6050   -0.3920 H         1 UNK         0.0000
     57 H19         6.4290   -0.3460    0.1780 H         1 UNK         0.0000
     58 H20         5.7750    0.6520   -1.1430 H         1 UNK         0.0000
     59 H21         9.4140   -6.3220  -11.0340 H         1 UNK         0.0000
     60 H22         9.7940   -4.6910  -11.6370 H         1 UNK         0.0000
     61 H23         9.6380   -6.7570   -8.6540 H         1 UNK         0.0000
     62 H24        10.1740   -5.4290   -7.5950 H         1 UNK         0.0000
     63 H25         5.9850   -4.5790   -6.7210 H         1 UNK         0.0000
     64 H26         3.2410   -7.6110   -5.4730 H         1 UNK         0.0000
     65 H27         5.0660   -5.7970  -10.9730 H         1 UNK         0.0000
     66 H28         2.1090   -9.7880   -9.4040 H         1 UNK         0.0000
     67 H29         6.7890   -9.6900  -14.9120 H         1 UNK         0.0000
     68 H30         7.7240   -9.9280  -12.6510 H         1 UNK         0.0000
     69 H31         4.7230   -5.7720  -15.5290 H         1 UNK         0.0000
     70 H32         3.1130   -6.5330  -15.7280 H         1 UNK         0.0000
@<TRIPOS>BOND
     1    1   35 1
     2    2   17 1
     3    2   24 1
     4    3   22 1
     5    3   23 1
     6    4   20 1
     7    4   25 1
     8    5   33 1
     9    5   38 1
    10    6   34 1
    11    6   38 1
    12    7   12 1
    13    7   13 1
    14    7   16 1
    15    8   14 1
    16    8   15 1
    17    8   21 1
    18    9   30 1
    19    9   31 1
    20    9   65 1
    21   10   28 ar
    22   10   32 ar
    23   11   30 ar
    24   11   32 ar
    25   12   14 1
    26   12   39 1
    27   12   40 1
    28   13   15 1
    29   13   41 1
    30   13   42 1
    31   14   43 1
    32   14   44 1
    33   15   45 1
    34   15   46 1
    35   16   20 1
    36   16   47 1
    37   16   48 1
    38   17   18 1
    39   17   19 1
    40   17   49 1
    41   18   22 1
    42   18   50 1
    43   18   51 1
    44   19   23 1
    45   19   52 1
    46   19   53 1
    47   20   54 1
    48   20   55 1
    49   21   56 1
    50   21   57 1
    51   21   58 1
    52   22   59 1
    53   22   60 1
    54   23   61 1
    55   23   62 1
    56   24   26 ar
    57   24   27 ar
    58   25   27 ar
    59   25   29 ar
    60   26   28 ar
    61   26   30 ar
    62   27   63 1
    63   28   29 ar
    64   29   64 1
    65   31   33 ar
    66   31   35 ar
    67   32   66 1
    68   33   34 ar
    69   34   36 ar
    70   35   37 ar
    71   36   37 ar
    72   36   67 1
    73   37   68 1
    74   38   69 1
    75   38   70 1
