# created with PyMOL 2.4.1
@<TRIPOS>MOLECULE
24821094
57 61 1                 
SMALL
USER_CHARGES
@<TRIPOS>ATOM
1	   O	2.835	-13.719	-5.118	O.2	1	UNK0	0.000	
2	   O	7.777	-2.050	-5.056	O.3	1	UNK0	0.000	
3	   N	3.328	-11.479	-4.740	N.pl3	1	UNK0	0.000	
4	   N	2.723	-7.709	-4.901	N.pl3	1	UNK0	0.000	
5	   N	3.897	-7.081	-4.700	N.2	1	UNK0	0.000	
6	   N	0.530	-7.280	-5.832	N.2	1	UNK0	0.000	
7	   N	0.343	-5.003	-6.687	N.2	1	UNK0	0.000	
8	   N	2.141	-3.437	-6.590	N.pl3	1	UNK0	0.000	
9	   C	2.561	-9.151	-4.460	C.3	1	UNK0	0.000	
10	   C	2.716	-9.304	-2.933	C.3	1	UNK0	0.000	
11	   C	3.532	-10.094	-5.193	C.3	1	UNK0	0.000	
12	   C	2.579	-10.769	-2.510	C.3	1	UNK0	0.000	
13	   C	3.525	-11.669	-3.301	C.3	1	UNK0	0.000	
14	   C	1.784	-6.929	-5.507	C.2	1	UNK0	0.000	
15	   C	2.386	-5.701	-5.717	C.2	1	UNK0	0.000	
16	   C	2.989	-12.570	-5.534	C.2	1	UNK0	0.000	
17	   C	3.685	-5.859	-5.199	C.2	1	UNK0	0.000	
18	   C	1.618	-4.717	-6.332	C.2	1	UNK0	0.000	
19	   C	4.740	-4.877	-5.162	C.2	1	UNK0	0.000	
20	   C	2.791	-12.334	-6.978	C.2	1	UNK0	0.000	
21	   C	-0.116	-6.249	-6.419	C.2	1	UNK0	0.000	
22	   C	4.864	-4.029	-4.062	C.2	1	UNK0	0.000	
23	   C	5.637	-4.777	-6.226	C.2	1	UNK0	0.000	
24	   C	3.063	-13.320	-7.835	C.2	1	UNK0	0.000	
25	   C	5.885	-3.079	-4.026	C.2	1	UNK0	0.000	
26	   C	6.658	-3.827	-6.189	C.2	1	UNK0	0.000	
27	   C	6.782	-2.979	-5.090	C.2	1	UNK0	0.000	
28	   C	7.447	-0.768	-4.650	C.2	1	UNK0	0.000	
29	   C	6.299	-0.152	-5.148	C.2	1	UNK0	0.000	
30	   C	8.264	-0.092	-3.744	C.2	1	UNK0	0.000	
31	   C	5.967	1.140	-4.740	C.2	1	UNK0	0.000	
32	   C	7.932	1.200	-3.336	C.2	1	UNK0	0.000	
33	   C	6.784	1.816	-3.834	C.2	1	UNK0	0.000	
34	   H	1.533	-9.419	-4.735	 H	1	UNK0	0.000	
35	   H	1.962	-8.697	-2.417	 H	1	UNK0	0.000	
36	   H	3.695	-8.927	-2.613	 H	1	UNK0	0.000	
37	   H	3.419	-9.987	-6.273	 H	1	UNK0	0.000	
38	   H	4.573	-9.833	-4.967	 H	1	UNK0	0.000	
39	   H	2.780	-10.866	-1.438	 H	1	UNK0	0.000	
40	   H	1.544	-11.093	-2.677	 H	1	UNK0	0.000	
41	   H	3.364	-12.713	-3.017	 H	1	UNK0	0.000	
42	   H	4.570	-11.424	-3.074	 H	1	UNK0	0.000	
43	   H	2.386	-11.398	-7.337	 H	1	UNK0	0.000	
44	   H	-1.140	-6.445	-6.717	 H	1	UNK0	0.000	
45	   H	4.175	-4.097	-3.224	 H	1	UNK0	0.000	
46	   H	5.553	-5.431	-7.091	 H	1	UNK0	0.000	
47	   H	1.548	-2.751	-7.038	 H	1	UNK0	0.000	
48	   H	3.087	-3.194	-6.336	 H	1	UNK0	0.000	
49	   H	3.456	-14.281	-7.522	 H	1	UNK0	0.000	
50	   H	2.901	-13.173	-8.898	 H	1	UNK0	0.000	
51	   H	5.972	-2.447	-3.147	 H	1	UNK0	0.000	
52	   H	7.353	-3.753	-7.021	 H	1	UNK0	0.000	
53	   H	5.657	-0.647	-5.872	 H	1	UNK0	0.000	
54	   H	9.160	-0.566	-3.353	 H	1	UNK0	0.000	
55	   H	5.076	1.621	-5.131	 H	1	UNK0	0.000	
56	   H	8.568	1.727	-2.631	 H	1	UNK0	0.000	
57	   H	6.526	2.822	-3.517	 H	1	UNK0	0.000	
@<TRIPOS>BOND
1 1 16 2
2 2 27 1
3 2 28 1
4 3 11 1
5 3 13 1
6 3 16 1
7 4 5 1
8 4 9 1
9 4 14 1
10 5 17 2
11 6 14 2
12 6 21 1
13 7 18 1
14 7 21 2
15 8 18 1
16 8 47 1
17 8 48 1
18 9 10 1
19 9 11 1
20 9 34 1
21 10 12 1
22 10 35 1
23 10 36 1
24 11 37 1
25 11 38 1
26 12 13 1
27 12 39 1
28 12 40 1
29 13 41 1
30 13 42 1
31 14 15 1
32 15 17 1
33 15 18 2
34 16 20 1
35 17 19 1
36 19 22 2
37 19 23 1
38 20 24 2
39 20 43 1
40 21 44 1
41 22 25 1
42 22 45 1
43 23 26 2
44 23 46 1
45 24 49 1
46 24 50 1
47 25 27 2
48 25 51 1
49 26 27 1
50 26 52 1
51 28 29 2
52 28 30 1
53 29 31 1
54 29 53 1
55 30 32 2
56 30 54 1
57 31 33 2
58 31 55 1
59 32 33 1
60 32 56 1
61 33 57 1
@<TRIPOS>SUBSTRUCTURE
1	UNK0	1	GROUP	1 ****	UNK
