@<TRIPOS>MOLECULE
10302451
   70    75     0     0     0
SMALL
NO_CHARGES

@<TRIPOS>ATOM
      1 Cl1        13.0740   -5.1590   -9.1960 Cl        1 UNK         0.0000
      2 O1          9.2340   -4.3930  -11.4400 O.3       1 UNK         0.0000
      3 O2          6.6940   -6.8900   -9.3240 O.3       1 UNK         0.0000
      4 O3          8.6630   -5.2970  -16.0710 O.3       1 UNK         0.0000
      5 O4         11.3480   -0.2930   -9.9970 O.3       1 UNK         0.0000
      6 O5         12.6470    0.6260   -8.3860 O.3       1 UNK         0.0000
      7 N1          5.7840   -7.2000  -15.1360 N.3       1 UNK         0.0000
      8 N2          4.9220   -7.9620  -12.5310 N.3       1 UNK         0.0000
      9 N3         11.3440   -3.2270  -10.6470 N.pl3     1 UNK         0.0000
     10 N4         12.6100   -3.1090  -14.5540 N.ar      1 UNK         0.0000
     11 N5         12.9160   -2.6570  -12.3050 N.ar      1 UNK         0.0000
     12 C1          5.7030   -6.2100  -14.0530 C.3       1 UNK         0.0000
     13 C2          6.0920   -8.5360  -14.6040 C.3       1 UNK         0.0000
     14 C3          4.6130   -6.6270  -13.0630 C.3       1 UNK         0.0000
     15 C4          5.0020   -8.9520  -13.6140 C.3       1 UNK         0.0000
     16 C5          6.7690   -6.7970  -16.1470 C.3       1 UNK         0.0000
     17 C6          8.1730   -5.3150  -11.1810 C.3       1 UNK         0.0000
     18 C7          8.7460   -6.5960  -10.5670 C.3       1 UNK         0.0000
     19 C8          7.1800   -4.6890  -10.1960 C.3       1 UNK         0.0000
     20 C9          7.2530   -5.3760  -15.8490 C.3       1 UNK         0.0000
     21 C10         3.9370   -8.3660  -11.5200 C.3       1 UNK         0.0000
     22 C11         7.5960   -7.5440  -10.2180 C.3       1 UNK         0.0000
     23 C12         6.0910   -5.7120   -9.8630 C.3       1 UNK         0.0000
     24 C13         9.6960   -4.3300  -12.7150 C.ar      1 UNK         0.0000
     25 C14         9.4170   -4.7840  -15.0650 C.ar      1 UNK         0.0000
     26 C15        10.9420   -3.7390  -12.9870 C.ar      1 UNK         0.0000
     27 C16         8.9480   -4.8440  -13.7520 C.ar      1 UNK         0.0000
     28 C17        11.4170   -3.6780  -14.3200 C.ar      1 UNK         0.0000
     29 C18        10.6410   -4.2130  -15.3540 C.ar      1 UNK         0.0000
     30 C19        11.7520   -3.1960  -11.9640 C.ar      1 UNK         0.0000
     31 C20        12.1440   -2.6520   -9.6520 C.ar      1 UNK         0.0000
     32 C21        13.3200   -2.6210  -13.5640 C.ar      1 UNK         0.0000
     33 C22        12.0900   -1.2810   -9.4170 C.ar      1 UNK         0.0000
     34 C23        12.8840   -0.7190   -8.4250 C.ar      1 UNK         0.0000
     35 C24        12.9990   -3.4500   -8.9000 C.ar      1 UNK         0.0000
     36 C25        13.7340   -1.5220   -7.6790 C.ar      1 UNK         0.0000
     37 C26        13.7890   -2.8820   -7.9180 C.ar      1 UNK         0.0000
     38 C27        11.4010    0.8170   -9.0820 C.3       1 UNK         0.0000
     39 H1          5.4610   -5.2330  -14.4710 H         1 UNK         0.0000
     40 H2          6.6620   -6.1580  -13.5370 H         1 UNK         0.0000
     41 H3          7.0550   -8.5090  -14.0940 H         1 UNK         0.0000
     42 H4          6.1330   -9.2530  -15.4230 H         1 UNK         0.0000
     43 H5          3.6490   -6.6530  -13.5740 H         1 UNK         0.0000
     44 H6          4.5720   -5.9100  -12.2440 H         1 UNK         0.0000
     45 H7          5.2440   -9.9300  -13.1960 H         1 UNK         0.0000
     46 H8          4.0430   -9.0050  -14.1300 H         1 UNK         0.0000
     47 H9          7.6170   -7.4820  -16.1210 H         1 UNK         0.0000
     48 H10         6.3090   -6.8240  -17.1340 H         1 UNK         0.0000
     49 H11         7.6610   -5.5550  -12.1130 H         1 UNK         0.0000
     50 H12         9.4110   -7.0770  -11.2830 H         1 UNK         0.0000
     51 H13         9.3010   -6.3490   -9.6620 H         1 UNK         0.0000
     52 H14         7.7040   -4.4040   -9.2830 H         1 UNK         0.0000
     53 H15         6.7260   -3.8080  -10.6480 H         1 UNK         0.0000
     54 H16         6.7430   -4.6730  -16.5060 H         1 UNK         0.0000
     55 H17         7.0340   -5.1280  -14.8110 H         1 UNK         0.0000
     56 H18         3.7780   -7.5470  -10.8190 H         1 UNK         0.0000
     57 H19         2.9940   -8.6120  -12.0090 H         1 UNK         0.0000
     58 H20         4.3050   -9.2400  -10.9820 H         1 UNK         0.0000
     59 H21         7.0660   -7.8230  -11.1300 H         1 UNK         0.0000
     60 H22         7.9940   -8.4400   -9.7420 H         1 UNK         0.0000
     61 H23         5.5420   -5.9660  -10.7690 H         1 UNK         0.0000
     62 H24         5.4050   -5.2860   -9.1290 H         1 UNK         0.0000
     63 H25         7.9900   -5.2980  -13.5460 H         1 UNK         0.0000
     64 H26        10.9940   -4.1760  -16.3730 H         1 UNK         0.0000
     65 H27        10.5020   -3.6480  -10.4090 H         1 UNK         0.0000
     66 H28        14.2750   -2.1690  -13.7870 H         1 UNK         0.0000
     67 H29        14.3540   -1.0840   -6.9120 H         1 UNK         0.0000
     68 H30        14.4530   -3.5050   -7.3350 H         1 UNK         0.0000
     69 H31        10.5640    0.7790   -8.3850 H         1 UNK         0.0000
     70 H32        11.4050    1.7630   -9.6230 H         1 UNK         0.0000
@<TRIPOS>BOND
     1    1   35 1
     2    2   17 1
     3    2   24 1
     4    3   22 1
     5    3   23 1
     6    4   20 1
     7    4   25 1
     8    5   33 1
     9    5   38 1
    10    6   34 1
    11    6   38 1
    12    7   12 1
    13    7   13 1
    14    7   16 1
    15    8   14 1
    16    8   15 1
    17    8   21 1
    18    9   30 1
    19    9   31 1
    20    9   65 1
    21   10   28 ar
    22   10   32 ar
    23   11   30 ar
    24   11   32 ar
    25   12   14 1
    26   12   39 1
    27   12   40 1
    28   13   15 1
    29   13   41 1
    30   13   42 1
    31   14   43 1
    32   14   44 1
    33   15   45 1
    34   15   46 1
    35   16   20 1
    36   16   47 1
    37   16   48 1
    38   17   18 1
    39   17   19 1
    40   17   49 1
    41   18   22 1
    42   18   50 1
    43   18   51 1
    44   19   23 1
    45   19   52 1
    46   19   53 1
    47   20   54 1
    48   20   55 1
    49   21   56 1
    50   21   57 1
    51   21   58 1
    52   22   59 1
    53   22   60 1
    54   23   61 1
    55   23   62 1
    56   24   26 ar
    57   24   27 ar
    58   25   27 ar
    59   25   29 ar
    60   26   28 ar
    61   26   30 ar
    62   27   63 1
    63   28   29 ar
    64   29   64 1
    65   31   33 ar
    66   31   35 ar
    67   32   66 1
    68   33   34 ar
    69   34   36 ar
    70   35   37 ar
    71   36   37 ar
    72   36   67 1
    73   37   68 1
    74   38   69 1
    75   38   70 1
