@<TRIPOS>MOLECULE
10302451
   70    75     0     0     0
SMALL
NO_CHARGES

@<TRIPOS>ATOM
      1 Cl1         4.7230   -6.0340  -12.4950 Cl        1 UNK         0.0000
      2 O1          7.3820   -6.0130  -10.2720 O.3       1 UNK         0.0000
      3 O2         11.1380   -4.2960  -10.6030 O.3       1 UNK         0.0000
      4 O3          5.4860   -4.7720   -6.0950 O.3       1 UNK         0.0000
      5 O4          7.3890  -10.4890  -13.0850 O.3       1 UNK         0.0000
      6 O5          6.6710  -10.8470  -15.2040 O.3       1 UNK         0.0000
      7 N1          6.3490   -3.8790   -3.3680 N.3       1 UNK         0.0000
      8 N2          6.2290   -1.7270   -1.5060 N.3       1 UNK         0.0000
      9 N3          6.5660   -8.1140  -11.4400 N.pl3     1 UNK         0.0000
     10 N4          3.9730   -8.7070   -8.3080 N.ar      1 UNK         0.0000
     11 N5          4.8790   -9.3370  -10.3430 N.ar      1 UNK         0.0000
     12 C1          7.2570   -3.8340   -2.2130 C.3       1 UNK         0.0000
     13 C2          5.0690   -3.2280   -3.0540 C.3       1 UNK         0.0000
     14 C3          7.5090   -2.3770   -1.8210 C.3       1 UNK         0.0000
     15 C4          5.3220   -1.7710   -2.6620 C.3       1 UNK         0.0000
     16 C5          6.1400   -5.2600   -3.8210 C.3       1 UNK         0.0000
     17 C6          8.5020   -5.1760   -9.9760 C.3       1 UNK         0.0000
     18 C7          9.7330   -6.0460   -9.7050 C.3       1 UNK         0.0000
     19 C8          8.7880   -4.2610  -11.1710 C.3       1 UNK         0.0000
     20 C9          5.0110   -5.2930   -4.8520 C.3       1 UNK         0.0000
     21 C10         6.4370   -0.3460   -1.0530 C.3       1 UNK         0.0000
     22 C11        10.9460   -5.1410   -9.4670 C.3       1 UNK         0.0000
     23 C12        10.0370   -3.4250  -10.8760 C.3       1 UNK         0.0000
     24 C13         6.5080   -6.2530   -9.2610 C.ar      1 UNK         0.0000
     25 C14         5.5400   -5.6330   -7.1440 C.ar      1 UNK         0.0000
     26 C15         5.6710   -7.3810   -9.3040 C.ar      1 UNK         0.0000
     27 C16         6.4350   -5.3930   -8.1880 C.ar      1 UNK         0.0000
     28 C17         4.7620   -7.6230   -8.2440 C.ar      1 UNK         0.0000
     29 C18         4.7120   -6.7370   -7.1620 C.ar      1 UNK         0.0000
     30 C19         5.7020   -8.2960  -10.3800 C.ar      1 UNK         0.0000
     31 C20         6.1260   -8.3410  -12.7500 C.ar      1 UNK         0.0000
     32 C21         4.0450   -9.5240   -9.3320 C.ar      1 UNK         0.0000
     33 C22         6.5590   -9.4660  -13.4450 C.ar      1 UNK         0.0000
     34 C23         6.1150   -9.6880  -14.7430 C.ar      1 UNK         0.0000
     35 C24         5.2590   -7.4410  -13.3580 C.ar      1 UNK         0.0000
     36 C25         5.2490   -8.7850  -15.3430 C.ar      1 UNK         0.0000
     37 C26         4.8250   -7.6670  -14.6510 C.ar      1 UNK         0.0000
     38 C27         7.1320  -11.5440  -14.0300 C.3       1 UNK         0.0000
     39 H1          8.2020   -4.3100   -2.4740 H         1 UNK         0.0000
     40 H2          6.8030   -4.3630   -1.3740 H         1 UNK         0.0000
     41 H3          4.5910   -3.7500   -2.2250 H         1 UNK         0.0000
     42 H4          4.4200   -3.2620   -3.9280 H         1 UNK         0.0000
     43 H5          7.9880   -1.8550   -2.6510 H         1 UNK         0.0000
     44 H6          8.1590   -2.3420   -0.9460 H         1 UNK         0.0000
     45 H7          4.3760   -1.2950   -2.4000 H         1 UNK         0.0000
     46 H8          5.7750   -1.2420   -3.5010 H         1 UNK         0.0000
     47 H9          7.0580   -5.6350   -4.2760 H         1 UNK         0.0000
     48 H10         5.8740   -5.8850   -2.9700 H         1 UNK         0.0000
     49 H11         8.2830   -4.5700   -9.0960 H         1 UNK         0.0000
     50 H12         9.5590   -6.6600   -8.8230 H         1 UNK         0.0000
     51 H13         9.9220   -6.6880  -10.5660 H         1 UNK         0.0000
     52 H14         8.9580   -4.8680  -12.0610 H         1 UNK         0.0000
     53 H15         7.9380   -3.6000  -11.3350 H         1 UNK         0.0000
     54 H16         4.6780   -6.3200   -4.9930 H         1 UNK         0.0000
     55 H17         4.1780   -4.6860   -4.4980 H         1 UNK         0.0000
     56 H18         6.0040    0.3430   -1.7770 H         1 UNK         0.0000
     57 H19         5.9550   -0.2050   -0.0850 H         1 UNK         0.0000
     58 H20         7.5050   -0.1510   -0.9580 H         1 UNK         0.0000
     59 H21        10.7730   -4.5280   -8.5820 H         1 UNK         0.0000
     60 H22        11.8340   -5.7540   -9.3160 H         1 UNK         0.0000
     61 H23         9.8520   -2.7900  -10.0090 H         1 UNK         0.0000
     62 H24        10.2710   -2.8030  -11.7400 H         1 UNK         0.0000
     63 H25         7.0770   -4.5250   -8.1530 H         1 UNK         0.0000
     64 H26         4.0260   -6.9150   -6.3470 H         1 UNK         0.0000
     65 H27         7.4790   -7.8290  -11.2770 H         1 UNK         0.0000
     66 H28         3.3960  -10.3870   -9.3520 H         1 UNK         0.0000
     67 H29         4.9080   -8.9550  -16.3530 H         1 UNK         0.0000
     68 H30         4.1510   -6.9660  -15.1220 H         1 UNK         0.0000
     69 H31         6.3580  -12.2140  -13.6550 H         1 UNK         0.0000
     70 H32         8.0450  -12.0980  -14.2470 H         1 UNK         0.0000
@<TRIPOS>BOND
     1    1   35 1
     2    2   17 1
     3    2   24 1
     4    3   22 1
     5    3   23 1
     6    4   20 1
     7    4   25 1
     8    5   33 1
     9    5   38 1
    10    6   34 1
    11    6   38 1
    12    7   12 1
    13    7   13 1
    14    7   16 1
    15    8   14 1
    16    8   15 1
    17    8   21 1
    18    9   30 1
    19    9   31 1
    20    9   65 1
    21   10   28 ar
    22   10   32 ar
    23   11   30 ar
    24   11   32 ar
    25   12   14 1
    26   12   39 1
    27   12   40 1
    28   13   15 1
    29   13   41 1
    30   13   42 1
    31   14   43 1
    32   14   44 1
    33   15   45 1
    34   15   46 1
    35   16   20 1
    36   16   47 1
    37   16   48 1
    38   17   18 1
    39   17   19 1
    40   17   49 1
    41   18   22 1
    42   18   50 1
    43   18   51 1
    44   19   23 1
    45   19   52 1
    46   19   53 1
    47   20   54 1
    48   20   55 1
    49   21   56 1
    50   21   57 1
    51   21   58 1
    52   22   59 1
    53   22   60 1
    54   23   61 1
    55   23   62 1
    56   24   26 ar
    57   24   27 ar
    58   25   27 ar
    59   25   29 ar
    60   26   28 ar
    61   26   30 ar
    62   27   63 1
    63   28   29 ar
    64   29   64 1
    65   31   33 ar
    66   31   35 ar
    67   32   66 1
    68   33   34 ar
    69   34   36 ar
    70   35   37 ar
    71   36   37 ar
    72   36   67 1
    73   37   68 1
    74   38   69 1
    75   38   70 1
