@<TRIPOS>MOLECULE
10302451
   70    75     0     0     0
SMALL
NO_CHARGES

@<TRIPOS>ATOM
      1 Cl1        12.2110   -5.2730   -9.3560 Cl        1 UNK         0.0000
      2 O1          8.6780   -5.5750   -9.2550 O.3       1 UNK         0.0000
      3 O2          5.4150   -4.2960   -7.0450 O.3       1 UNK         0.0000
      4 O3          7.6630   -9.0840  -12.2940 O.3       1 UNK         0.0000
      5 O4         10.0640   -0.5330   -9.8340 O.3       1 UNK         0.0000
      6 O5         11.8950    0.5690   -9.0840 O.3       1 UNK         0.0000
      7 N1          5.1490   -9.0740  -12.2150 N.3       1 UNK         0.0000
      8 N2          3.1930   -8.1960  -10.3420 N.3       1 UNK         0.0000
      9 N3          9.9210   -3.5240  -10.0860 N.pl3     1 UNK         0.0000
     10 N4          9.9940   -5.2250  -13.8250 N.ar      1 UNK         0.0000
     11 N5         10.5030   -3.5000  -12.3680 N.ar      1 UNK         0.0000
     12 C1          4.1340  -10.0030  -11.6990 C.3       1 UNK         0.0000
     13 C2          4.6280   -7.7010  -12.2630 C.3       1 UNK         0.0000
     14 C3          3.7150   -9.5690  -10.2930 C.3       1 UNK         0.0000
     15 C4          4.2090   -7.2670  -10.8570 C.3       1 UNK         0.0000
     16 C5          5.6320   -9.5000  -13.5350 C.3       1 UNK         0.0000
     17 C6          7.4160   -5.6150   -8.5860 C.3       1 UNK         0.0000
     18 C7          7.6130   -5.3010   -7.1000 C.3       1 UNK         0.0000
     19 C8          6.4790   -4.5690   -9.1990 C.3       1 UNK         0.0000
     20 C9          7.1500   -9.3180  -13.6060 C.3       1 UNK         0.0000
     21 C10         2.7100   -7.7690   -9.0230 C.3       1 UNK         0.0000
     22 C11         6.2470   -5.2680   -6.4080 C.3       1 UNK         0.0000
     23 C12         5.1570   -4.5640   -8.4250 C.3       1 UNK         0.0000
     24 C13         8.7280   -6.0940  -10.5080 C.ar      1 UNK         0.0000
     25 C14         8.2190   -7.8680  -12.0570 C.ar      1 UNK         0.0000
     26 C15         9.3480   -5.3780  -11.5460 C.ar      1 UNK         0.0000
     27 C16         8.1710   -7.3260  -10.7720 C.ar      1 UNK         0.0000
     28 C17         9.3950   -5.9290  -12.8510 C.ar      1 UNK         0.0000
     29 C18         8.8280   -7.1840  -13.0910 C.ar      1 UNK         0.0000
     30 C19         9.9350   -4.1110  -11.3340 C.ar      1 UNK         0.0000
     31 C20        11.0500   -2.8360   -9.6220 C.ar      1 UNK         0.0000
     32 C21        10.5230   -4.0520  -13.5700 C.ar      1 UNK         0.0000
     33 C22        11.0360   -1.4470   -9.5410 C.ar      1 UNK         0.0000
     34 C23        12.1580   -0.7710   -9.0750 C.ar      1 UNK         0.0000
     35 C24        12.1880   -3.5410   -9.2480 C.ar      1 UNK         0.0000
     36 C25        13.2900   -1.4820   -8.7030 C.ar      1 UNK         0.0000
     37 C26        13.3020   -2.8610   -8.7900 C.ar      1 UNK         0.0000
     38 C27        10.4610    0.6790   -9.1670 C.3       1 UNK         0.0000
     39 H1          4.5490  -11.0100  -11.6610 H         1 UNK         0.0000
     40 H2          3.2650   -9.9920  -12.3570 H         1 UNK         0.0000
     41 H3          3.7640   -7.6640  -12.9280 H         1 UNK         0.0000
     42 H4          5.4020   -7.0300  -12.6350 H         1 UNK         0.0000
     43 H5          4.5790   -9.6060   -9.6290 H         1 UNK         0.0000
     44 H6          2.9410  -10.2390   -9.9210 H         1 UNK         0.0000
     45 H7          3.7940   -6.2590  -10.8950 H         1 UNK         0.0000
     46 H8          5.0780   -7.2770  -10.1990 H         1 UNK         0.0000
     47 H9          5.3850  -10.5510  -13.6900 H         1 UNK         0.0000
     48 H10         5.1570   -8.8970  -14.3080 H         1 UNK         0.0000
     49 H11         6.9760   -6.6070   -8.6950 H         1 UNK         0.0000
     50 H12         8.2330   -6.0720   -6.6440 H         1 UNK         0.0000
     51 H13         8.0980   -4.3310   -6.9940 H         1 UNK         0.0000
     52 H14         6.9420   -3.5840   -9.1340 H         1 UNK         0.0000
     53 H15         6.2890   -4.8160  -10.2420 H         1 UNK         0.0000
     54 H16         7.6040  -10.2180  -14.0190 H         1 UNK         0.0000
     55 H17         7.3840   -8.4670  -14.2460 H         1 UNK         0.0000
     56 H18         3.5420   -7.7480   -8.3200 H         1 UNK         0.0000
     57 H19         2.2760   -6.7720   -9.1000 H         1 UNK         0.0000
     58 H20         1.9520   -8.4680   -8.6690 H         1 UNK         0.0000
     59 H21         5.7790   -6.2510   -6.4800 H         1 UNK         0.0000
     60 H22         6.3770   -5.0030   -5.3590 H         1 UNK         0.0000
     61 H23         4.6760   -5.5370   -8.5230 H         1 UNK         0.0000
     62 H24         4.5020   -3.7910   -8.8290 H         1 UNK         0.0000
     63 H25         7.6930   -7.8790   -9.9760 H         1 UNK         0.0000
     64 H26         8.8620   -7.6150  -14.0800 H         1 UNK         0.0000
     65 H27         9.1300   -3.5890   -9.5280 H         1 UNK         0.0000
     66 H28        10.9960   -3.5130  -14.3780 H         1 UNK         0.0000
     67 H29        14.1620   -0.9570   -8.3470 H         1 UNK         0.0000
     68 H30        14.1860   -3.4110   -8.5000 H         1 UNK         0.0000
     69 H31        10.0240    0.7290   -8.1700 H         1 UNK         0.0000
     70 H32        10.1780    1.5520   -9.7530 H         1 UNK         0.0000
@<TRIPOS>BOND
     1    1   35 1
     2    2   17 1
     3    2   24 1
     4    3   22 1
     5    3   23 1
     6    4   20 1
     7    4   25 1
     8    5   33 1
     9    5   38 1
    10    6   34 1
    11    6   38 1
    12    7   12 1
    13    7   13 1
    14    7   16 1
    15    8   14 1
    16    8   15 1
    17    8   21 1
    18    9   30 1
    19    9   31 1
    20    9   65 1
    21   10   28 ar
    22   10   32 ar
    23   11   30 ar
    24   11   32 ar
    25   12   14 1
    26   12   39 1
    27   12   40 1
    28   13   15 1
    29   13   41 1
    30   13   42 1
    31   14   43 1
    32   14   44 1
    33   15   45 1
    34   15   46 1
    35   16   20 1
    36   16   47 1
    37   16   48 1
    38   17   18 1
    39   17   19 1
    40   17   49 1
    41   18   22 1
    42   18   50 1
    43   18   51 1
    44   19   23 1
    45   19   52 1
    46   19   53 1
    47   20   54 1
    48   20   55 1
    49   21   56 1
    50   21   57 1
    51   21   58 1
    52   22   59 1
    53   22   60 1
    54   23   61 1
    55   23   62 1
    56   24   26 ar
    57   24   27 ar
    58   25   27 ar
    59   25   29 ar
    60   26   28 ar
    61   26   30 ar
    62   27   63 1
    63   28   29 ar
    64   29   64 1
    65   31   33 ar
    66   31   35 ar
    67   32   66 1
    68   33   34 ar
    69   34   36 ar
    70   35   37 ar
    71   36   37 ar
    72   36   67 1
    73   37   68 1
    74   38   69 1
    75   38   70 1
