@<TRIPOS>MOLECULE
10302451
   70    75     0     0     0
SMALL
NO_CHARGES

@<TRIPOS>ATOM
      1 Cl1         7.2890  -10.2020  -13.6200 Cl        1 UNK         0.0000
      2 O1          8.6230   -6.5800   -9.9370 O.3       1 UNK         0.0000
      3 O2         12.6410   -5.8480   -9.2460 O.3       1 UNK         0.0000
      4 O3          6.1780   -4.5250   -6.4170 O.3       1 UNK         0.0000
      5 O4          7.7770   -5.1090  -12.5590 O.3       1 UNK         0.0000
      6 O5          8.0160   -4.4970  -14.7270 O.3       1 UNK         0.0000
      7 N1          5.7250   -4.3450   -3.2230 N.3       1 UNK         0.0000
      8 N2          6.8670   -1.9600   -2.1670 N.3       1 UNK         0.0000
      9 N3          7.3890   -7.9550  -11.6770 N.pl3     1 UNK         0.0000
     10 N4          3.8890   -7.1090   -9.6970 N.ar      1 UNK         0.0000
     11 N5          5.0530   -8.1220  -11.4220 N.ar      1 UNK         0.0000
     12 C1          5.2220   -3.0270   -3.6330 C.3       1 UNK         0.0000
     13 C2          7.1560   -4.2810   -2.8920 C.3       1 UNK         0.0000
     14 C3          5.4360   -2.0250   -2.4970 C.3       1 UNK         0.0000
     15 C4          7.3700   -3.2790   -1.7560 C.3       1 UNK         0.0000
     16 C5          5.4690   -5.3530   -4.2600 C.3       1 UNK         0.0000
     17 C6          9.8020   -6.0690   -9.3130 C.3       1 UNK         0.0000
     18 C7         10.6960   -7.2320   -8.8740 C.3       1 UNK         0.0000
     19 C8         10.5710   -5.1950  -10.3090 C.3       1 UNK         0.0000
     20 C9          5.0460   -4.6570   -5.5550 C.3       1 UNK         0.0000
     21 C10         7.1230   -0.9530   -1.1300 C.3       1 UNK         0.0000
     22 C11        11.9920   -6.6740   -8.2790 C.3       1 UNK         0.0000
     23 C12        11.8720   -4.7160   -9.6580 C.3       1 UNK         0.0000
     24 C13         7.4400   -6.3290   -9.3180 C.ar      1 UNK         0.0000
     25 C14         6.1920   -5.2920   -7.5380 C.ar      1 UNK         0.0000
     26 C15         6.2460   -6.8590   -9.8360 C.ar      1 UNK         0.0000
     27 C16         7.4020   -5.5540   -8.1800 C.ar      1 UNK         0.0000
     28 C17         5.0170   -6.5910   -9.1840 C.ar      1 UNK         0.0000
     29 C18         5.0060   -5.8060   -8.0260 C.ar      1 UNK         0.0000
     30 C19         6.2240   -7.6600  -10.9990 C.ar      1 UNK         0.0000
     31 C20         7.5370   -7.5690  -13.0160 C.ar      1 UNK         0.0000
     32 C21         3.9290   -7.8470  -10.7810 C.ar      1 UNK         0.0000
     33 C22         7.7080   -6.2270  -13.3400 C.ar      1 UNK         0.0000
     34 C23         7.8600   -5.8530  -14.6700 C.ar      1 UNK         0.0000
     35 C24         7.5090   -8.5280  -14.0220 C.ar      1 UNK         0.0000
     36 C25         7.8310   -6.8150  -15.6680 C.ar      1 UNK         0.0000
     37 C26         7.6560   -8.1470  -15.3430 C.ar      1 UNK         0.0000
     38 C27         8.3710   -4.0950  -13.3900 C.3       1 UNK         0.0000
     39 H1          4.1580   -3.0980   -3.8600 H         1 UNK         0.0000
     40 H2          5.7620   -2.6920   -4.5200 H         1 UNK         0.0000
     41 H3          7.7170   -3.9610   -3.7700 H         1 UNK         0.0000
     42 H4          7.5010   -5.2660   -2.5790 H         1 UNK         0.0000
     43 H5          4.8740   -2.3460   -1.6190 H         1 UNK         0.0000
     44 H6          5.0910   -1.0400   -2.8100 H         1 UNK         0.0000
     45 H7          8.4340   -3.2080   -1.5290 H         1 UNK         0.0000
     46 H8          6.8300   -3.6140   -0.8690 H         1 UNK         0.0000
     47 H9          6.3780   -5.9290   -4.4390 H         1 UNK         0.0000
     48 H10         4.6750   -6.0210   -3.9310 H         1 UNK         0.0000
     49 H11         9.5250   -5.4720   -8.4420 H         1 UNK         0.0000
     50 H12        10.1760   -7.8270   -8.1220 H         1 UNK         0.0000
     51 H13        10.9300   -7.8570   -9.7360 H         1 UNK         0.0000
     52 H14        10.8030   -5.7790  -11.2000 H         1 UNK         0.0000
     53 H15         9.9630   -4.3340  -10.5840 H         1 UNK         0.0000
     54 H16         4.2780   -5.2480   -6.0520 H         1 UNK         0.0000
     55 H17         4.6490   -3.6680   -5.3230 H         1 UNK         0.0000
     56 H18         7.1200   -1.4300   -0.1510 H         1 UNK         0.0000
     57 H19         8.0950   -0.4910   -1.3040 H         1 UNK         0.0000
     58 H20         6.3460   -0.1890   -1.1650 H         1 UNK         0.0000
     59 H21        11.7590   -6.0830   -7.3920 H         1 UNK         0.0000
     60 H22        12.6500   -7.4980   -8.0030 H         1 UNK         0.0000
     61 H23        11.6370   -4.1000   -8.7900 H         1 UNK         0.0000
     62 H24        12.4430   -4.1300  -10.3780 H         1 UNK         0.0000
     63 H25         8.3190   -5.1450   -7.7800 H         1 UNK         0.0000
     64 H26         4.0760   -5.6000   -7.5180 H         1 UNK         0.0000
     65 H27         8.1040   -8.4310  -11.2270 H         1 UNK         0.0000
     66 H28         3.0040   -8.2470  -11.1680 H         1 UNK         0.0000
     67 H29         7.9440   -6.5230  -16.7010 H         1 UNK         0.0000
     68 H30         7.6340   -8.8930  -16.1240 H         1 UNK         0.0000
     69 H31         9.4540   -4.0860  -13.2690 H         1 UNK         0.0000
     70 H32         7.9530   -3.1150  -13.1610 H         1 UNK         0.0000
@<TRIPOS>BOND
     1    1   35 1
     2    2   17 1
     3    2   24 1
     4    3   22 1
     5    3   23 1
     6    4   20 1
     7    4   25 1
     8    5   33 1
     9    5   38 1
    10    6   34 1
    11    6   38 1
    12    7   12 1
    13    7   13 1
    14    7   16 1
    15    8   14 1
    16    8   15 1
    17    8   21 1
    18    9   30 1
    19    9   31 1
    20    9   65 1
    21   10   28 ar
    22   10   32 ar
    23   11   30 ar
    24   11   32 ar
    25   12   14 1
    26   12   39 1
    27   12   40 1
    28   13   15 1
    29   13   41 1
    30   13   42 1
    31   14   43 1
    32   14   44 1
    33   15   45 1
    34   15   46 1
    35   16   20 1
    36   16   47 1
    37   16   48 1
    38   17   18 1
    39   17   19 1
    40   17   49 1
    41   18   22 1
    42   18   50 1
    43   18   51 1
    44   19   23 1
    45   19   52 1
    46   19   53 1
    47   20   54 1
    48   20   55 1
    49   21   56 1
    50   21   57 1
    51   21   58 1
    52   22   59 1
    53   22   60 1
    54   23   61 1
    55   23   62 1
    56   24   26 ar
    57   24   27 ar
    58   25   27 ar
    59   25   29 ar
    60   26   28 ar
    61   26   30 ar
    62   27   63 1
    63   28   29 ar
    64   29   64 1
    65   31   33 ar
    66   31   35 ar
    67   32   66 1
    68   33   34 ar
    69   34   36 ar
    70   35   37 ar
    71   36   37 ar
    72   36   67 1
    73   37   68 1
    74   38   69 1
    75   38   70 1
