@<TRIPOS>MOLECULE
10302451
   70    75     0     0     0
SMALL
NO_CHARGES

@<TRIPOS>ATOM
      1 Cl1         9.4360   -6.7260   -9.0510 Cl        1 UNK         0.0000
      2 O1          6.5310   -4.8330   -8.4500 O.3       1 UNK         0.0000
      3 O2          6.0230   -4.5360   -4.3490 O.3       1 UNK         0.0000
      4 O3          2.9300   -7.4680  -10.0850 O.3       1 UNK         0.0000
      5 O4         10.2040   -1.8640  -10.8040 O.3       1 UNK         0.0000
      6 O5         12.4620   -1.9860  -10.6870 O.3       1 UNK         0.0000
      7 N1          1.6920  -10.2580   -9.6100 N.3       1 UNK         0.0000
      8 N2         -0.0420  -12.2320  -10.7070 N.3       1 UNK         0.0000
      9 N3          8.3830   -4.1270  -10.0360 N.pl3     1 UNK         0.0000
     10 N4          6.4170   -6.1280  -13.0380 N.ar      1 UNK         0.0000
     11 N5          8.1840   -4.8460  -12.2700 N.ar      1 UNK         0.0000
     12 C1          1.3570  -11.4690   -8.8480 C.3       1 UNK         0.0000
     13 C2          1.6800  -10.5270  -11.0550 C.3       1 UNK         0.0000
     14 C3         -0.0310  -11.9620   -9.2620 C.3       1 UNK         0.0000
     15 C4          0.2920  -11.0200  -11.4690 C.3       1 UNK         0.0000
     16 C5          2.9870   -9.7100   -9.1870 C.3       1 UNK         0.0000
     17 C6          6.0990   -5.1600   -7.1280 C.3       1 UNK         0.0000
     18 C7          7.3190   -5.3460   -6.2210 C.3       1 UNK         0.0000
     19 C8          5.2340   -4.0220   -6.5760 C.3       1 UNK         0.0000
     20 C9          2.8340   -8.2200   -8.8740 C.3       1 UNK         0.0000
     21 C10        -1.3370  -12.7790  -11.1310 C.3       1 UNK         0.0000
     22 C11         6.8460   -5.6170   -4.7900 C.3       1 UNK         0.0000
     23 C12         4.8410   -4.3450   -5.1310 C.3       1 UNK         0.0000
     24 C13         5.9200   -5.4800   -9.4750 C.ar      1 UNK         0.0000
     25 C14         4.0990   -6.8150  -10.3140 C.ar      1 UNK         0.0000
     26 C15         6.4940   -5.4720  -10.7580 C.ar      1 UNK         0.0000
     27 C16         4.7330   -6.1470   -9.2660 C.ar      1 UNK         0.0000
     28 C17         5.8480   -6.1500  -11.8220 C.ar      1 UNK         0.0000
     29 C18         4.6470   -6.8250  -11.5820 C.ar      1 UNK         0.0000
     30 C19         7.7080   -4.8040  -11.0310 C.ar      1 UNK         0.0000
     31 C20         9.7800   -4.1950   -9.9650 C.ar      1 UNK         0.0000
     32 C21         7.5470   -5.4910  -13.2330 C.ar      1 UNK         0.0000
     33 C22        10.5520   -3.1020  -10.3460 C.ar      1 UNK         0.0000
     34 C23        11.9380   -3.1750  -10.2680 C.ar      1 UNK         0.0000
     35 C24        10.3970   -5.3580   -9.5200 C.ar      1 UNK         0.0000
     36 C25        12.5460   -4.3400   -9.8220 C.ar      1 UNK         0.0000
     37 C26        11.7760   -5.4260   -9.4500 C.ar      1 UNK         0.0000
     38 C27        11.3740   -1.0440  -10.6280 C.3       1 UNK         0.0000
     39 H1          1.3590  -11.2410   -7.7820 H         1 UNK         0.0000
     40 H2          2.0950  -12.2440   -9.0560 H         1 UNK         0.0000
     41 H3          2.4220  -11.2910  -11.2870 H         1 UNK         0.0000
     42 H4          1.9180   -9.6120  -11.5970 H         1 UNK         0.0000
     43 H5         -0.7730  -11.1970   -9.0290 H         1 UNK         0.0000
     44 H6         -0.2690  -12.8770   -8.7200 H         1 UNK         0.0000
     45 H7          0.2900  -11.2490  -12.5350 H         1 UNK         0.0000
     46 H8         -0.4460  -10.2450  -11.2610 H         1 UNK         0.0000
     47 H9          3.3290  -10.2350   -8.2940 H         1 UNK         0.0000
     48 H10         3.7150   -9.8410   -9.9870 H         1 UNK         0.0000
     49 H11         5.5170   -6.0820   -7.1510 H         1 UNK         0.0000
     50 H12         7.9110   -6.1900   -6.5750 H         1 UNK         0.0000
     51 H13         7.9270   -4.4410   -6.2380 H         1 UNK         0.0000
     52 H14         5.8000   -3.0910   -6.6000 H         1 UNK         0.0000
     53 H15         4.3360   -3.9200   -7.1830 H         1 UNK         0.0000
     54 H16         1.8630   -8.0440   -8.4130 H         1 UNK         0.0000
     55 H17         3.6230   -7.9100   -8.1900 H         1 UNK         0.0000
     56 H18        -1.6820  -12.2510  -12.0190 H         1 UNK         0.0000
     57 H19        -1.2260  -13.8400  -11.3590 H         1 UNK         0.0000
     58 H20        -2.0650  -12.6560  -10.3280 H         1 UNK         0.0000
     59 H21         6.2720   -6.5450   -4.7670 H         1 UNK         0.0000
     60 H22         7.7100   -5.7080   -4.1320 H         1 UNK         0.0000
     61 H23         4.2420   -5.2550   -5.1130 H         1 UNK         0.0000
     62 H24         4.2620   -3.5190   -4.7180 H         1 UNK         0.0000
     63 H25         4.2900   -6.1550   -8.2810 H         1 UNK         0.0000
     64 H26         4.1500   -7.3490  -12.3840 H         1 UNK         0.0000
     65 H27         7.8890   -3.6050   -9.3840 H         1 UNK         0.0000
     66 H28         7.9760   -5.4930  -14.2240 H         1 UNK         0.0000
     67 H29        13.6220   -4.3980   -9.7670 H         1 UNK         0.0000
     68 H30        12.2540   -6.3300   -9.1030 H         1 UNK         0.0000
     69 H31        11.3510   -0.5470   -9.6590 H         1 UNK         0.0000
     70 H32        11.4570   -0.3130  -11.4320 H         1 UNK         0.0000
@<TRIPOS>BOND
     1    1   35 1
     2    2   17 1
     3    2   24 1
     4    3   22 1
     5    3   23 1
     6    4   20 1
     7    4   25 1
     8    5   33 1
     9    5   38 1
    10    6   34 1
    11    6   38 1
    12    7   12 1
    13    7   13 1
    14    7   16 1
    15    8   14 1
    16    8   15 1
    17    8   21 1
    18    9   30 1
    19    9   31 1
    20    9   65 1
    21   10   28 ar
    22   10   32 ar
    23   11   30 ar
    24   11   32 ar
    25   12   14 1
    26   12   39 1
    27   12   40 1
    28   13   15 1
    29   13   41 1
    30   13   42 1
    31   14   43 1
    32   14   44 1
    33   15   45 1
    34   15   46 1
    35   16   20 1
    36   16   47 1
    37   16   48 1
    38   17   18 1
    39   17   19 1
    40   17   49 1
    41   18   22 1
    42   18   50 1
    43   18   51 1
    44   19   23 1
    45   19   52 1
    46   19   53 1
    47   20   54 1
    48   20   55 1
    49   21   56 1
    50   21   57 1
    51   21   58 1
    52   22   59 1
    53   22   60 1
    54   23   61 1
    55   23   62 1
    56   24   26 ar
    57   24   27 ar
    58   25   27 ar
    59   25   29 ar
    60   26   28 ar
    61   26   30 ar
    62   27   63 1
    63   28   29 ar
    64   29   64 1
    65   31   33 ar
    66   31   35 ar
    67   32   66 1
    68   33   34 ar
    69   34   36 ar
    70   35   37 ar
    71   36   37 ar
    72   36   67 1
    73   37   68 1
    74   38   69 1
    75   38   70 1
