@<TRIPOS>MOLECULE
10302451
   70    75     0     0     0
SMALL
NO_CHARGES

@<TRIPOS>ATOM
      1 Cl1         8.0740   -3.7900  -11.9410 Cl        1 UNK         0.0000
      2 O1          6.2390   -5.3390   -8.4960 O.3       1 UNK         0.0000
      3 O2          6.2980   -4.1970   -4.5140 O.3       1 UNK         0.0000
      4 O3          2.5100   -8.0460   -9.6560 O.3       1 UNK         0.0000
      5 O4         11.1710   -6.2750   -8.5470 O.3       1 UNK         0.0000
      6 O5         13.0790   -5.3280   -9.3170 O.3       1 UNK         0.0000
      7 N1          0.8740  -10.9790   -8.5460 N.3       1 UNK         0.0000
      8 N2         -0.7470  -13.1700   -7.7240 N.3       1 UNK         0.0000
      9 N3          8.4540   -5.6870   -9.6860 N.pl3     1 UNK         0.0000
     10 N4          6.6770   -8.6780  -11.8720 N.ar      1 UNK         0.0000
     11 N5          8.5100   -7.3750  -11.3280 N.ar      1 UNK         0.0000
     12 C1          0.3770  -11.0690   -7.1660 C.3       1 UNK         0.0000
     13 C2          1.0750  -12.3170   -9.1190 C.3       1 UNK         0.0000
     14 C3         -0.9490  -11.8320   -7.1510 C.3       1 UNK         0.0000
     15 C4         -0.2510  -13.0800   -9.1050 C.3       1 UNK         0.0000
     16 C5          2.1100  -10.1880   -8.6110 C.3       1 UNK         0.0000
     17 C6          5.9550   -5.3520   -7.0960 C.3       1 UNK         0.0000
     18 C7          7.2610   -5.4970   -6.3090 C.3       1 UNK         0.0000
     19 C8          5.2760   -4.0370   -6.6990 C.3       1 UNK         0.0000
     20 C9          2.1440   -9.4010   -9.9230 C.3       1 UNK         0.0000
     21 C10        -1.9830  -13.9620   -7.6590 C.3       1 UNK         0.0000
     22 C11         6.9550   -5.4300   -4.8100 C.3       1 UNK         0.0000
     23 C12         5.0470   -4.0270   -5.1850 C.3       1 UNK         0.0000
     24 C13         5.6980   -6.3340   -9.2430 C.ar      1 UNK         0.0000
     25 C14         3.8140   -7.7120   -9.8390 C.ar      1 UNK         0.0000
     26 C15         6.4810   -7.0100  -10.1950 C.ar      1 UNK         0.0000
     27 C16         4.3770   -6.6900   -9.0760 C.ar      1 UNK         0.0000
     28 C17         5.9080   -8.0470  -10.9700 C.ar      1 UNK         0.0000
     29 C18         4.5660   -8.3930  -10.7760 C.ar      1 UNK         0.0000
     30 C19         7.8400   -6.6880  -10.4100 C.ar      1 UNK         0.0000
     31 C20         9.6370   -5.1060  -10.1580 C.ar      1 UNK         0.0000
     32 C21         7.9340   -8.3370  -12.0300 C.ar      1 UNK         0.0000
     33 C22        10.8560   -5.4290   -9.5700 C.ar      1 UNK         0.0000
     34 C23        12.0270   -4.8510  -10.0470 C.ar      1 UNK         0.0000
     35 C24         9.5940   -4.2000  -11.2110 C.ar      1 UNK         0.0000
     36 C25        11.9760   -3.9480  -11.0990 C.ar      1 UNK         0.0000
     37 C26        10.7630   -3.6260  -11.6770 C.ar      1 UNK         0.0000
     38 C27        12.5860   -6.5140   -8.6640 C.3       1 UNK         0.0000
     39 H1          0.2240  -10.0650   -6.7680 H         1 UNK         0.0000
     40 H2          1.1070  -11.5960   -6.5510 H         1 UNK         0.0000
     41 H3          1.8130  -12.8590   -8.5260 H         1 UNK         0.0000
     42 H4          1.4300  -12.2240  -10.1450 H         1 UNK         0.0000
     43 H5         -1.6860  -11.2890   -7.7440 H         1 UNK         0.0000
     44 H6         -1.3040  -11.9250   -6.1250 H         1 UNK         0.0000
     45 H7         -0.0980  -14.0840   -9.5020 H         1 UNK         0.0000
     46 H8         -0.9810  -12.5530   -9.7200 H         1 UNK         0.0000
     47 H9          2.1410   -9.4930   -7.7710 H         1 UNK         0.0000
     48 H10         2.9710  -10.8540   -8.5640 H         1 UNK         0.0000
     49 H11         5.2940   -6.1880   -6.8640 H         1 UNK         0.0000
     50 H12         7.7230   -6.4560   -6.5440 H         1 UNK         0.0000
     51 H13         7.9410   -4.6890   -6.5780 H         1 UNK         0.0000
     52 H14         5.9160   -3.1990   -6.9760 H         1 UNK         0.0000
     53 H15         4.3190   -3.9520   -7.2120 H         1 UNK         0.0000
     54 H16         2.8740   -9.8490  -10.5960 H         1 UNK         0.0000
     55 H17         1.1580   -9.4270  -10.3870 H         1 UNK         0.0000
     56 H18        -2.5390  -13.6940   -6.7620 H         1 UNK         0.0000
     57 H19        -2.5920  -13.7550   -8.5390 H         1 UNK         0.0000
     58 H20        -1.7340  -15.0230   -7.6310 H         1 UNK         0.0000
     59 H21         6.3080   -6.2630   -4.5330 H         1 UNK         0.0000
     60 H22         7.8860   -5.4900   -4.2460 H         1 UNK         0.0000
     61 H23         4.3750   -4.8410   -4.9140 H         1 UNK         0.0000
     62 H24         4.6030   -3.0750   -4.8910 H         1 UNK         0.0000
     63 H25         3.7730   -6.1720   -8.3450 H         1 UNK         0.0000
     64 H26         4.1200   -9.1850  -11.3580 H         1 UNK         0.0000
     65 H27         8.0670   -5.3880   -8.8480 H         1 UNK         0.0000
     66 H28         8.5240   -8.8640  -12.7650 H         1 UNK         0.0000
     67 H29        12.8840   -3.4970  -11.4660 H         1 UNK         0.0000
     68 H30        10.7270   -2.9220  -12.4960 H         1 UNK         0.0000
     69 H31        12.7760   -7.3950   -9.2770 H         1 UNK         0.0000
     70 H32        13.0410   -6.6260   -7.6810 H         1 UNK         0.0000
@<TRIPOS>BOND
     1    1   35 1
     2    2   17 1
     3    2   24 1
     4    3   22 1
     5    3   23 1
     6    4   20 1
     7    4   25 1
     8    5   33 1
     9    5   38 1
    10    6   34 1
    11    6   38 1
    12    7   12 1
    13    7   13 1
    14    7   16 1
    15    8   14 1
    16    8   15 1
    17    8   21 1
    18    9   30 1
    19    9   31 1
    20    9   65 1
    21   10   28 ar
    22   10   32 ar
    23   11   30 ar
    24   11   32 ar
    25   12   14 1
    26   12   39 1
    27   12   40 1
    28   13   15 1
    29   13   41 1
    30   13   42 1
    31   14   43 1
    32   14   44 1
    33   15   45 1
    34   15   46 1
    35   16   20 1
    36   16   47 1
    37   16   48 1
    38   17   18 1
    39   17   19 1
    40   17   49 1
    41   18   22 1
    42   18   50 1
    43   18   51 1
    44   19   23 1
    45   19   52 1
    46   19   53 1
    47   20   54 1
    48   20   55 1
    49   21   56 1
    50   21   57 1
    51   21   58 1
    52   22   59 1
    53   22   60 1
    54   23   61 1
    55   23   62 1
    56   24   26 ar
    57   24   27 ar
    58   25   27 ar
    59   25   29 ar
    60   26   28 ar
    61   26   30 ar
    62   27   63 1
    63   28   29 ar
    64   29   64 1
    65   31   33 ar
    66   31   35 ar
    67   32   66 1
    68   33   34 ar
    69   34   36 ar
    70   35   37 ar
    71   36   37 ar
    72   36   67 1
    73   37   68 1
    74   38   69 1
    75   38   70 1
