@<TRIPOS>MOLECULE
10302451
   70    75     0     0     0
SMALL
NO_CHARGES

@<TRIPOS>ATOM
      1 Cl1        10.7280   -1.4670  -10.7110 Cl        1 UNK         0.0000
      2 O1          7.1080   -4.9450   -8.7630 O.3       1 UNK         0.0000
      3 O2          5.6350   -4.4660   -4.9210 O.3       1 UNK         0.0000
      4 O3          3.8710   -7.5580  -11.0600 O.3       1 UNK         0.0000
      5 O4          9.8900   -6.3090   -8.9370 O.3       1 UNK         0.0000
      6 O5         12.0710   -6.7100   -8.4750 O.3       1 UNK         0.0000
      7 N1          3.0770   -8.9930   -7.7730 N.3       1 UNK         0.0000
      8 N2          1.8460   -7.9460   -5.4280 N.3       1 UNK         0.0000
      9 N3          8.8920   -3.7200  -10.0880 N.pl3     1 UNK         0.0000
     10 N4          7.2280   -5.2470  -13.5210 N.ar      1 UNK         0.0000
     11 N5          8.8190   -3.9680  -12.4290 N.ar      1 UNK         0.0000
     12 C1          1.6350   -9.1630   -7.5420 C.3       1 UNK         0.0000
     13 C2          3.5620   -7.7460   -7.1630 C.3       1 UNK         0.0000
     14 C3          1.3620   -9.1930   -6.0370 C.3       1 UNK         0.0000
     15 C4          3.2880   -7.7770   -5.6580 C.3       1 UNK         0.0000
     16 C5          3.3890   -9.0340   -9.2070 C.3       1 UNK         0.0000
     17 C6          6.3700   -5.2140   -7.5690 C.3       1 UNK         0.0000
     18 C7          7.3370   -5.3530   -6.3890 C.3       1 UNK         0.0000
     19 C8          5.4050   -4.0580   -7.2920 C.3       1 UNK         0.0000
     20 C9          3.1720   -7.6470   -9.8160 C.3       1 UNK         0.0000
     21 C10         1.5340   -7.9050   -3.9940 C.3       1 UNK         0.0000
     22 C11         6.5330   -5.5610   -5.1030 C.3       1 UNK         0.0000
     23 C12         4.6760   -4.3170   -5.9700 C.3       1 UNK         0.0000
     24 C13         6.5950   -5.4250   -9.9250 C.ar      1 UNK         0.0000
     25 C14         4.9590   -6.7470  -11.0990 C.ar      1 UNK         0.0000
     26 C15         7.1870   -5.0830  -11.1530 C.ar      1 UNK         0.0000
     27 C16         5.4910   -6.2490   -9.9100 C.ar      1 UNK         0.0000
     28 C17         6.6450   -5.5880  -12.3610 C.ar      1 UNK         0.0000
     29 C18         5.5270   -6.4280  -12.3170 C.ar      1 UNK         0.0000
     30 C19         8.3190   -4.2420  -11.2300 C.ar      1 UNK         0.0000
     31 C20        10.2390   -3.9750   -9.8010 C.ar      1 UNK         0.0000
     32 C21         8.2790   -4.4620  -13.5320 C.ar      1 UNK         0.0000
     33 C22        10.6170   -5.2010   -9.2630 C.ar      1 UNK         0.0000
     34 C23        11.9570   -5.4480   -8.9850 C.ar      1 UNK         0.0000
     35 C24        11.1990   -3.0000  -10.0470 C.ar      1 UNK         0.0000
     36 C25        12.9080   -4.4700   -9.2350 C.ar      1 UNK         0.0000
     37 C26        12.5280   -3.2520   -9.7640 C.ar      1 UNK         0.0000
     38 C27        10.8460   -7.3800   -8.8300 C.3       1 UNK         0.0000
     39 H1          1.3030  -10.0990   -7.9910 H         1 UNK         0.0000
     40 H2          1.0950   -8.3310   -7.9930 H         1 UNK         0.0000
     41 H3          3.0430   -6.8980   -7.6100 H         1 UNK         0.0000
     42 H4          4.6330   -7.6500   -7.3360 H         1 UNK         0.0000
     43 H5          1.8810  -10.0420   -5.5900 H         1 UNK         0.0000
     44 H6          0.2900   -9.2900   -5.8640 H         1 UNK         0.0000
     45 H7          3.6200   -6.8410   -5.2090 H         1 UNK         0.0000
     46 H8          3.8290   -8.6090   -5.2070 H         1 UNK         0.0000
     47 H9          4.4290   -9.3310   -9.3440 H         1 UNK         0.0000
     48 H10         2.7370   -9.7530   -9.7010 H         1 UNK         0.0000
     49 H11         5.8060   -6.1410   -7.6890 H         1 UNK         0.0000
     50 H12         7.9910   -6.2090   -6.5530 H         1 UNK         0.0000
     51 H13         7.9360   -4.4460   -6.3010 H         1 UNK         0.0000
     52 H14         5.9650   -3.1250   -7.2220 H         1 UNK         0.0000
     53 H15         4.6780   -3.9880   -8.1010 H         1 UNK         0.0000
     54 H16         2.1080   -7.4870   -9.9850 H         1 UNK         0.0000
     55 H17         3.5500   -6.8870   -9.1320 H         1 UNK         0.0000
     56 H18         2.4470   -7.7250   -3.4280 H         1 UNK         0.0000
     57 H19         0.8230   -7.1020   -3.8000 H         1 UNK         0.0000
     58 H20         1.0980   -8.8570   -3.6880 H         1 UNK         0.0000
     59 H21         5.9660   -6.4900   -5.1750 H         1 UNK         0.0000
     60 H22         7.2140   -5.6180   -4.2540 H         1 UNK         0.0000
     61 H23         4.0850   -5.2280   -6.0550 H         1 UNK         0.0000
     62 H24         4.0190   -3.4760   -5.7470 H         1 UNK         0.0000
     63 H25         5.0340   -6.5130   -8.9670 H         1 UNK         0.0000
     64 H26         5.1090   -6.8230  -13.2300 H         1 UNK         0.0000
     65 H27         8.3610   -3.1770   -9.4840 H         1 UNK         0.0000
     66 H28         8.7240   -4.2070  -14.4820 H         1 UNK         0.0000
     67 H29        13.9470   -4.6610   -9.0140 H         1 UNK         0.0000
     68 H30        13.2730   -2.4930   -9.9570 H         1 UNK         0.0000
     69 H31        10.9540   -7.8940   -9.7860 H         1 UNK         0.0000
     70 H32        10.5530   -8.0820   -8.0500 H         1 UNK         0.0000
@<TRIPOS>BOND
     1    1   35 1
     2    2   17 1
     3    2   24 1
     4    3   22 1
     5    3   23 1
     6    4   20 1
     7    4   25 1
     8    5   33 1
     9    5   38 1
    10    6   34 1
    11    6   38 1
    12    7   12 1
    13    7   13 1
    14    7   16 1
    15    8   14 1
    16    8   15 1
    17    8   21 1
    18    9   30 1
    19    9   31 1
    20    9   65 1
    21   10   28 ar
    22   10   32 ar
    23   11   30 ar
    24   11   32 ar
    25   12   14 1
    26   12   39 1
    27   12   40 1
    28   13   15 1
    29   13   41 1
    30   13   42 1
    31   14   43 1
    32   14   44 1
    33   15   45 1
    34   15   46 1
    35   16   20 1
    36   16   47 1
    37   16   48 1
    38   17   18 1
    39   17   19 1
    40   17   49 1
    41   18   22 1
    42   18   50 1
    43   18   51 1
    44   19   23 1
    45   19   52 1
    46   19   53 1
    47   20   54 1
    48   20   55 1
    49   21   56 1
    50   21   57 1
    51   21   58 1
    52   22   59 1
    53   22   60 1
    54   23   61 1
    55   23   62 1
    56   24   26 ar
    57   24   27 ar
    58   25   27 ar
    59   25   29 ar
    60   26   28 ar
    61   26   30 ar
    62   27   63 1
    63   28   29 ar
    64   29   64 1
    65   31   33 ar
    66   31   35 ar
    67   32   66 1
    68   33   34 ar
    69   34   36 ar
    70   35   37 ar
    71   36   37 ar
    72   36   67 1
    73   37   68 1
    74   38   69 1
    75   38   70 1
