@<TRIPOS>MOLECULE
10302451
   70    75     0     0     0
SMALL
NO_CHARGES

@<TRIPOS>ATOM
      1 Cl1         3.6050   -6.5260   -1.4940 Cl        1 UNK         0.0000
      2 O1          2.1660   -3.6850   -0.2010 O.3       1 UNK         0.0000
      3 O2         -0.6840   -6.1670    1.4960 O.3       1 UNK         0.0000
      4 O3          0.0700   -1.4170   -3.8130 O.3       1 UNK         0.0000
      5 O4          7.2560   -4.0400    1.2970 O.3       1 UNK         0.0000
      6 O5          8.5330   -5.8850    1.6050 O.3       1 UNK         0.0000
      7 N1         -0.8110   -4.2240   -5.8660 N.3       1 UNK         0.0000
      8 N2         -0.0750   -6.8340   -6.7350 N.3       1 UNK         0.0000
      9 N3          4.6770   -4.0510   -0.2450 N.pl3     1 UNK         0.0000
     10 N4          4.7790   -2.1170   -3.8690 N.ar      1 UNK         0.0000
     11 N5          5.8280   -3.2190   -2.1240 N.ar      1 UNK         0.0000
     12 C1         -1.7930   -5.3180   -5.8730 C.3       1 UNK         0.0000
     13 C2          0.5460   -4.7390   -5.6310 C.3       1 UNK         0.0000
     14 C3         -1.4310   -6.3190   -6.9720 C.3       1 UNK         0.0000
     15 C4          0.9070   -5.7400   -6.7300 C.3       1 UNK         0.0000
     16 C5         -1.1660   -3.2030   -4.8720 C.3       1 UNK         0.0000
     17 C6          0.8820   -4.1870    0.1770 C.3       1 UNK         0.0000
     18 C7          0.6880   -5.5890   -0.4070 C.3       1 UNK         0.0000
     19 C8          0.7920   -4.2640    1.7040 C.3       1 UNK         0.0000
     20 C9         -0.2960   -1.9620   -5.0820 C.3       1 UNK         0.0000
     21 C10         0.2810   -7.8550   -7.7290 C.3       1 UNK         0.0000
     22 C11        -0.6550   -6.1500    0.0680 C.3       1 UNK         0.0000
     23 C12        -0.5560   -4.8760    2.0970 C.3       1 UNK         0.0000
     24 C13         2.2520   -3.0530   -1.3990 C.ar      1 UNK         0.0000
     25 C14         1.2000   -1.9030   -3.2360 C.ar      1 UNK         0.0000
     26 C15         3.4980   -2.9060   -2.0330 C.ar      1 UNK         0.0000
     27 C16         1.1200   -2.5520   -2.0040 C.ar      1 UNK         0.0000
     28 C17         3.5780   -2.2450   -3.2830 C.ar      1 UNK         0.0000
     29 C18         2.4120   -1.7510   -3.8780 C.ar      1 UNK         0.0000
     30 C19         4.6910   -3.3990   -1.4600 C.ar      1 UNK         0.0000
     31 C20         5.4710   -5.1880   -0.0500 C.ar      1 UNK         0.0000
     32 C21         5.8560   -2.5960   -3.2900 C.ar      1 UNK         0.0000
     33 C22         6.6560   -5.0960    0.6730 C.ar      1 UNK         0.0000
     34 C23         7.4370   -6.2300    0.8660 C.ar      1 UNK         0.0000
     35 C24         5.0790   -6.4100   -0.5850 C.ar      1 UNK         0.0000
     36 C25         7.0380   -7.4450    0.3300 C.ar      1 UNK         0.0000
     37 C26         5.8630   -7.5320   -0.3930 C.ar      1 UNK         0.0000
     38 C27         8.2050   -4.6200    2.2110 C.3       1 UNK         0.0000
     39 H1         -2.7870   -4.9130   -6.0620 H         1 UNK         0.0000
     40 H2         -1.7830   -5.8200   -4.9050 H         1 UNK         0.0000
     41 H3          0.5820   -5.2350   -4.6600 H         1 UNK         0.0000
     42 H4          1.2560   -3.9130   -5.6430 H         1 UNK         0.0000
     43 H5         -1.4670   -5.8220   -7.9420 H         1 UNK         0.0000
     44 H6         -2.1410   -7.1450   -6.9590 H         1 UNK         0.0000
     45 H7          1.9020   -6.1450   -6.5400 H         1 UNK         0.0000
     46 H8          0.8980   -5.2370   -7.6970 H         1 UNK         0.0000
     47 H9         -2.2160   -2.9330   -4.9880 H         1 UNK         0.0000
     48 H10        -1.0010   -3.5970   -3.8700 H         1 UNK         0.0000
     49 H11         0.1040   -3.5230   -0.2020 H         1 UNK         0.0000
     50 H12         0.6960   -5.5340   -1.4960 H         1 UNK         0.0000
     51 H13         1.4950   -6.2400   -0.0690 H         1 UNK         0.0000
     52 H14         1.6000   -4.8880    2.0850 H         1 UNK         0.0000
     53 H15         0.8730   -3.2630    2.1250 H         1 UNK         0.0000
     54 H16         0.6030   -2.2380   -5.6310 H         1 UNK         0.0000
     55 H17        -0.8540   -1.2180   -5.6500 H         1 UNK         0.0000
     56 H18         0.2340   -8.8420   -7.2690 H         1 UNK         0.0000
     57 H19        -0.4190   -7.8100   -8.5630 H         1 UNK         0.0000
     58 H20         1.2920   -7.6710   -8.0930 H         1 UNK         0.0000
     59 H21        -1.4640   -5.5210   -0.3060 H         1 UNK         0.0000
     60 H22        -0.7800   -7.1650   -0.3110 H         1 UNK         0.0000
     61 H23        -1.3630   -4.2310    1.7500 H         1 UNK         0.0000
     62 H24        -0.6080   -4.9740    3.1820 H         1 UNK         0.0000
     63 H25         0.1610   -2.6640   -1.5190 H         1 UNK         0.0000
     64 H26         2.4610   -1.2500   -4.8340 H         1 UNK         0.0000
     65 H27         4.1150   -3.7230    0.4750 H         1 UNK         0.0000
     66 H28         6.8070   -2.4750   -3.7880 H         1 UNK         0.0000
     67 H29         7.6470   -8.3240    0.4760 H         1 UNK         0.0000
     68 H30         5.5560   -8.4810   -0.8090 H         1 UNK         0.0000
     69 H31         7.7510   -4.7710    3.1900 H         1 UNK         0.0000
     70 H32         9.0930   -3.9930    2.2930 H         1 UNK         0.0000
@<TRIPOS>BOND
     1    1   35 1
     2    2   17 1
     3    2   24 1
     4    3   22 1
     5    3   23 1
     6    4   20 1
     7    4   25 1
     8    5   33 1
     9    5   38 1
    10    6   34 1
    11    6   38 1
    12    7   12 1
    13    7   13 1
    14    7   16 1
    15    8   14 1
    16    8   15 1
    17    8   21 1
    18    9   30 1
    19    9   31 1
    20    9   65 1
    21   10   28 ar
    22   10   32 ar
    23   11   30 ar
    24   11   32 ar
    25   12   14 1
    26   12   39 1
    27   12   40 1
    28   13   15 1
    29   13   41 1
    30   13   42 1
    31   14   43 1
    32   14   44 1
    33   15   45 1
    34   15   46 1
    35   16   20 1
    36   16   47 1
    37   16   48 1
    38   17   18 1
    39   17   19 1
    40   17   49 1
    41   18   22 1
    42   18   50 1
    43   18   51 1
    44   19   23 1
    45   19   52 1
    46   19   53 1
    47   20   54 1
    48   20   55 1
    49   21   56 1
    50   21   57 1
    51   21   58 1
    52   22   59 1
    53   22   60 1
    54   23   61 1
    55   23   62 1
    56   24   26 ar
    57   24   27 ar
    58   25   27 ar
    59   25   29 ar
    60   26   28 ar
    61   26   30 ar
    62   27   63 1
    63   28   29 ar
    64   29   64 1
    65   31   33 ar
    66   31   35 ar
    67   32   66 1
    68   33   34 ar
    69   34   36 ar
    70   35   37 ar
    71   36   37 ar
    72   36   67 1
    73   37   68 1
    74   38   69 1
    75   38   70 1
