@<TRIPOS>MOLECULE
10302451
   70    75     0     0     0
SMALL
NO_CHARGES

@<TRIPOS>ATOM
      1 Cl1       -11.2880  -11.4810   11.4110 Cl        1 UNK         0.0000
      2 O1        -11.2980   -9.0160   14.7160 O.3       1 UNK         0.0000
      3 O2        -15.0110   -7.8180   13.3230 O.3       1 UNK         0.0000
      4 O3         -8.0900   -5.5360   14.2880 O.3       1 UNK         0.0000
      5 O4        -10.7280  -13.8810   16.0170 O.3       1 UNK         0.0000
      6 O5        -11.3520  -15.9140   15.2380 O.3       1 UNK         0.0000
      7 N1         -9.5110   -3.5660   12.1680 N.3       1 UNK         0.0000
      8 N2         -9.8310   -3.0870    9.3800 N.3       1 UNK         0.0000
      9 N3        -10.5960  -11.4190   14.3000 N.pl3     1 UNK         0.0000
     10 N4         -6.8010  -10.0540   13.5150 N.ar      1 UNK         0.0000
     11 N5         -8.3420  -11.7690   13.7150 N.ar      1 UNK         0.0000
     12 C1         -8.5620   -4.1270   11.1970 C.3       1 UNK         0.0000
     13 C2        -10.0660   -2.2940   11.6840 C.3       1 UNK         0.0000
     14 C3         -9.2770   -4.3590    9.8640 C.3       1 UNK         0.0000
     15 C4        -10.7810   -2.5260   10.3510 C.3       1 UNK         0.0000
     16 C5         -8.8810   -3.3990   13.4850 C.3       1 UNK         0.0000
     17 C6        -12.3540   -8.1500   14.2950 C.3       1 UNK         0.0000
     18 C7        -12.7330   -8.4710   12.8470 C.3       1 UNK         0.0000
     19 C8        -13.5780   -8.3620   15.1920 C.3       1 UNK         0.0000
     20 C9         -9.1850   -4.6200   14.3550 C.3       1 UNK         0.0000
     21 C10       -10.4610   -3.2530    8.0640 C.3       1 UNK         0.0000
     22 C11       -13.9180   -7.5940   12.4310 C.3       1 UNK         0.0000
     23 C12       -14.7300   -7.4890   14.6850 C.3       1 UNK         0.0000
     24 C13       -10.0290   -8.6140   14.4480 C.ar      1 UNK         0.0000
     25 C14        -8.3950   -6.8580   14.2280 C.ar      1 UNK         0.0000
     26 C15        -9.0450   -9.5600   14.1120 C.ar      1 UNK         0.0000
     27 C16        -9.6960   -7.2790   14.5030 C.ar      1 UNK         0.0000
     28 C17        -7.7230   -9.1320   13.8340 C.ar      1 UNK         0.0000
     29 C18        -7.4130   -7.7690   13.8910 C.ar      1 UNK         0.0000
     30 C19        -9.3280  -10.9420   14.0410 C.ar      1 UNK         0.0000
     31 C20       -10.9820  -12.6790   13.8250 C.ar      1 UNK         0.0000
     32 C21        -7.1210  -11.3250   13.4640 C.ar      1 UNK         0.0000
     33 C22       -11.0110  -13.7710   14.6870 C.ar      1 UNK         0.0000
     34 C23       -11.4000  -15.0170   14.2090 C.ar      1 UNK         0.0000
     35 C24       -11.3310  -12.8400   12.4890 C.ar      1 UNK         0.0000
     36 C25       -11.7470  -15.1700   12.8740 C.ar      1 UNK         0.0000
     37 C26       -11.7120  -14.0840   12.0200 C.ar      1 UNK         0.0000
     38 C27       -11.3300  -15.1190   16.4390 C.3       1 UNK         0.0000
     39 H1         -8.1760   -5.0750   11.5720 H         1 UNK         0.0000
     40 H2         -7.7370   -3.4300   11.0510 H         1 UNK         0.0000
     41 H3         -9.2580   -1.5760   11.5440 H         1 UNK         0.0000
     42 H4        -10.7760   -1.9050   12.4150 H         1 UNK         0.0000
     43 H5        -10.0850   -5.0780   10.0050 H         1 UNK         0.0000
     44 H6         -8.5680   -4.7480    9.1330 H         1 UNK         0.0000
     45 H7        -11.1680   -1.5780    9.9760 H         1 UNK         0.0000
     46 H8        -11.6060   -3.2230   10.4980 H         1 UNK         0.0000
     47 H9         -7.8020   -3.3010   13.3610 H         1 UNK         0.0000
     48 H10        -9.2750   -2.5040   13.9650 H         1 UNK         0.0000
     49 H11       -12.0260   -7.1120   14.3650 H         1 UNK         0.0000
     50 H12       -11.8840   -8.2690   12.1950 H         1 UNK         0.0000
     51 H13       -13.0130   -9.5210   12.7680 H         1 UNK         0.0000
     52 H14       -13.8740   -9.4110   15.1600 H         1 UNK         0.0000
     53 H15       -13.3320   -8.0820   16.2160 H         1 UNK         0.0000
     54 H16        -9.3310   -4.3040   15.3860 H         1 UNK         0.0000
     55 H17       -10.0890   -5.1080   13.9930 H         1 UNK         0.0000
     56 H18       -11.5410   -3.1430    8.1620 H         1 UNK         0.0000
     57 H19       -10.0800   -2.4950    7.3800 H         1 UNK         0.0000
     58 H20       -10.2300   -4.2440    7.6730 H         1 UNK         0.0000
     59 H21       -13.6240   -6.5440   12.4710 H         1 UNK         0.0000
     60 H22       -14.2190   -7.8480   11.4150 H         1 UNK         0.0000
     61 H23       -14.4470   -6.4390   14.7550 H         1 UNK         0.0000
     62 H24       -15.6160   -7.6680   15.2930 H         1 UNK         0.0000
     63 H25       -10.4510   -6.5500   14.7610 H         1 UNK         0.0000
     64 H26        -6.4100   -7.4310   13.6760 H         1 UNK         0.0000
     65 H27       -11.2220  -10.8810   14.8110 H         1 UNK         0.0000
     66 H28        -6.3550  -12.0410   13.2050 H         1 UNK         0.0000
     67 H29       -12.0440  -16.1380   12.5030 H         1 UNK         0.0000
     68 H30       -11.9830  -14.2070   10.9820 H         1 UNK         0.0000
     69 H31       -12.3430  -14.9480   16.8030 H         1 UNK         0.0000
     70 H32       -10.7240  -15.6010   17.2060 H         1 UNK         0.0000
@<TRIPOS>BOND
     1    1   35 1
     2    2   17 1
     3    2   24 1
     4    3   22 1
     5    3   23 1
     6    4   20 1
     7    4   25 1
     8    5   33 1
     9    5   38 1
    10    6   34 1
    11    6   38 1
    12    7   12 1
    13    7   13 1
    14    7   16 1
    15    8   14 1
    16    8   15 1
    17    8   21 1
    18    9   30 1
    19    9   31 1
    20    9   65 1
    21   10   28 ar
    22   10   32 ar
    23   11   30 ar
    24   11   32 ar
    25   12   14 1
    26   12   39 1
    27   12   40 1
    28   13   15 1
    29   13   41 1
    30   13   42 1
    31   14   43 1
    32   14   44 1
    33   15   45 1
    34   15   46 1
    35   16   20 1
    36   16   47 1
    37   16   48 1
    38   17   18 1
    39   17   19 1
    40   17   49 1
    41   18   22 1
    42   18   50 1
    43   18   51 1
    44   19   23 1
    45   19   52 1
    46   19   53 1
    47   20   54 1
    48   20   55 1
    49   21   56 1
    50   21   57 1
    51   21   58 1
    52   22   59 1
    53   22   60 1
    54   23   61 1
    55   23   62 1
    56   24   26 ar
    57   24   27 ar
    58   25   27 ar
    59   25   29 ar
    60   26   28 ar
    61   26   30 ar
    62   27   63 1
    63   28   29 ar
    64   29   64 1
    65   31   33 ar
    66   31   35 ar
    67   32   66 1
    68   33   34 ar
    69   34   36 ar
    70   35   37 ar
    71   36   37 ar
    72   36   67 1
    73   37   68 1
    74   38   69 1
    75   38   70 1
