@<TRIPOS>MOLECULE
10302451
   70    75     0     0     0
SMALL
NO_CHARGES

@<TRIPOS>ATOM
      1 Cl1        -8.6910   -4.4120   13.6560 Cl        1 UNK         0.0000
      2 O1        -11.4890   -8.1440   14.4030 O.3       1 UNK         0.0000
      3 O2        -15.4910   -8.1590   13.3330 O.3       1 UNK         0.0000
      4 O3        -10.0220  -12.1440   16.5080 O.3       1 UNK         0.0000
      5 O4        -10.6790   -7.4500    9.9000 O.3       1 UNK         0.0000
      6 O5        -10.3240   -5.9450    8.2450 O.3       1 UNK         0.0000
      7 N1        -11.8190  -13.8580   14.1910 N.3       1 UNK         0.0000
      8 N2        -12.8270  -12.3760   11.9790 N.3       1 UNK         0.0000
      9 N3         -9.9500   -6.9550   12.7720 N.pl3     1 UNK         0.0000
     10 N4         -7.1570   -9.8920   13.4440 N.ar      1 UNK         0.0000
     11 N5         -7.8440   -7.9420   12.4040 N.ar      1 UNK         0.0000
     12 C1        -10.9400  -13.4880   13.0730 C.3       1 UNK         0.0000
     13 C2        -12.8780  -12.8570   14.3790 C.3       1 UNK         0.0000
     14 C3        -11.7680  -13.3780   11.7910 C.3       1 UNK         0.0000
     15 C4        -13.7060  -12.7460   13.0970 C.3       1 UNK         0.0000
     16 C5        -11.0470  -14.0470   15.4270 C.3       1 UNK         0.0000
     17 C6        -12.8360   -8.6010   14.2650 C.3       1 UNK         0.0000
     18 C7        -13.7840   -7.6180   14.9560 C.3       1 UNK         0.0000
     19 C8        -13.1980   -8.6860   12.7790 C.3       1 UNK         0.0000
     20 C9        -11.2580  -12.8430   16.3480 C.3       1 UNK         0.0000
     21 C10       -13.5980  -12.1870   10.7440 C.3       1 UNK         0.0000
     22 C11       -15.2290   -8.0730   14.7350 C.3       1 UNK         0.0000
     23 C12       -14.6660   -9.1000   12.6420 C.3       1 UNK         0.0000
     24 C13       -10.5340   -9.0900   14.5910 C.ar      1 UNK         0.0000
     25 C14        -9.7800  -11.1170   15.6530 C.ar      1 UNK         0.0000
     26 C15        -9.3090   -9.0040   13.9060 C.ar      1 UNK         0.0000
     27 C16       -10.7570  -10.1410   15.4530 C.ar      1 UNK         0.0000
     28 C17        -8.3180   -9.9960   14.1090 C.ar      1 UNK         0.0000
     29 C18        -8.5680  -11.0500   14.9950 C.ar      1 UNK         0.0000
     30 C19        -9.0250   -7.9500   13.0100 C.ar      1 UNK         0.0000
     31 C20        -9.7340   -6.0280   11.7440 C.ar      1 UNK         0.0000
     32 C21        -6.9470   -8.8900   12.6230 C.ar      1 UNK         0.0000
     33 C22       -10.0970   -6.3390   10.4370 C.ar      1 UNK         0.0000
     34 C23        -9.8830   -5.4120    9.4230 C.ar      1 UNK         0.0000
     35 C24        -9.1510   -4.7990   12.0280 C.ar      1 UNK         0.0000
     36 C25        -9.3010   -4.1870    9.7150 C.ar      1 UNK         0.0000
     37 C26        -8.9370   -3.8840   11.0130 C.ar      1 UNK         0.0000
     38 C27       -11.1850   -7.0380    8.6160 C.3       1 UNK         0.0000
     39 H1        -10.1720  -14.2520   12.9460 H         1 UNK         0.0000
     40 H2        -10.4680  -12.5290   13.2840 H         1 UNK         0.0000
     41 H3        -12.4270  -11.8900   14.6050 H         1 UNK         0.0000
     42 H4        -13.5230  -13.1590   15.2040 H         1 UNK         0.0000
     43 H5        -12.2190  -14.3460   11.5650 H         1 UNK         0.0000
     44 H6        -11.1240  -13.0760   10.9660 H         1 UNK         0.0000
     45 H7        -14.4740  -11.9830   13.2250 H         1 UNK         0.0000
     46 H8        -14.1790  -13.7060   12.8860 H         1 UNK         0.0000
     47 H9        -11.3850  -14.9530   15.9310 H         1 UNK         0.0000
     48 H10        -9.9890  -14.1380   15.1850 H         1 UNK         0.0000
     49 H11       -12.9360   -9.5870   14.7210 H         1 UNK         0.0000
     50 H12       -13.5690   -7.5940   16.0240 H         1 UNK         0.0000
     51 H13       -13.6480   -6.6220   14.5340 H         1 UNK         0.0000
     52 H14       -13.0500   -7.7110   12.3130 H         1 UNK         0.0000
     53 H15       -12.5640   -9.4250   12.2900 H         1 UNK         0.0000
     54 H16       -11.9990  -12.1760   15.9100 H         1 UNK         0.0000
     55 H17       -11.6090  -13.1870   17.3210 H         1 UNK         0.0000
     56 H18       -13.0100  -12.5270    9.8920 H         1 UNK         0.0000
     57 H19       -14.5220  -12.7640   10.8000 H         1 UNK         0.0000
     58 H20       -13.8380  -11.1310   10.6220 H         1 UNK         0.0000
     59 H21       -15.3760   -9.0520   15.1940 H         1 UNK         0.0000
     60 H22       -15.9110   -7.3540   15.1890 H         1 UNK         0.0000
     61 H23       -14.8050  -10.0910   13.0730 H         1 UNK         0.0000
     62 H24       -14.9420   -9.1190   11.5870 H         1 UNK         0.0000
     63 H25       -11.6970  -10.2100   15.9800 H         1 UNK         0.0000
     64 H26        -7.8180  -11.8090   15.1600 H         1 UNK         0.0000
     65 H27       -10.7500   -6.8950   13.3180 H         1 UNK         0.0000
     66 H28        -6.0020   -8.8370   12.1030 H         1 UNK         0.0000
     67 H29        -9.1310   -3.4700    8.9260 H         1 UNK         0.0000
     68 H30        -8.4840   -2.9290   11.2360 H         1 UNK         0.0000
     69 H31       -12.2180   -6.6990    8.7020 H         1 UNK         0.0000
     70 H32       -11.1080   -7.8490    7.8930 H         1 UNK         0.0000
@<TRIPOS>BOND
     1    1   35 1
     2    2   17 1
     3    2   24 1
     4    3   22 1
     5    3   23 1
     6    4   20 1
     7    4   25 1
     8    5   33 1
     9    5   38 1
    10    6   34 1
    11    6   38 1
    12    7   12 1
    13    7   13 1
    14    7   16 1
    15    8   14 1
    16    8   15 1
    17    8   21 1
    18    9   30 1
    19    9   31 1
    20    9   65 1
    21   10   28 ar
    22   10   32 ar
    23   11   30 ar
    24   11   32 ar
    25   12   14 1
    26   12   39 1
    27   12   40 1
    28   13   15 1
    29   13   41 1
    30   13   42 1
    31   14   43 1
    32   14   44 1
    33   15   45 1
    34   15   46 1
    35   16   20 1
    36   16   47 1
    37   16   48 1
    38   17   18 1
    39   17   19 1
    40   17   49 1
    41   18   22 1
    42   18   50 1
    43   18   51 1
    44   19   23 1
    45   19   52 1
    46   19   53 1
    47   20   54 1
    48   20   55 1
    49   21   56 1
    50   21   57 1
    51   21   58 1
    52   22   59 1
    53   22   60 1
    54   23   61 1
    55   23   62 1
    56   24   26 ar
    57   24   27 ar
    58   25   27 ar
    59   25   29 ar
    60   26   28 ar
    61   26   30 ar
    62   27   63 1
    63   28   29 ar
    64   29   64 1
    65   31   33 ar
    66   31   35 ar
    67   32   66 1
    68   33   34 ar
    69   34   36 ar
    70   35   37 ar
    71   36   37 ar
    72   36   67 1
    73   37   68 1
    74   38   69 1
    75   38   70 1
