@<TRIPOS>MOLECULE
10302451
   70    75     0     0     0
SMALL
NO_CHARGES

@<TRIPOS>ATOM
      1 Cl1         3.6290   -6.5270   -1.4860 Cl        1 UNK         0.0000
      2 O1          2.2540   -3.6910   -0.2460 O.3       1 UNK         0.0000
      3 O2         -0.6860   -6.0860    1.4230 O.3       1 UNK         0.0000
      4 O3          0.2730   -1.3280   -3.8620 O.3       1 UNK         0.0000
      5 O4          7.3470   -4.1340    1.2960 O.3       1 UNK         0.0000
      6 O5          8.5850   -6.0080    1.5910 O.3       1 UNK         0.0000
      7 N1          0.0320   -0.7870   -6.4830 N.3       1 UNK         0.0000
      8 N2          0.4030    1.3330   -8.3480 N.3       1 UNK         0.0000
      9 N3          4.7620   -4.0810   -0.2330 N.pl3     1 UNK         0.0000
     10 N4          4.9760   -2.0730   -3.8110 N.ar      1 UNK         0.0000
     11 N5          5.9680   -3.2210   -2.0640 N.ar      1 UNK         0.0000
     12 C1         -1.0810   -0.3220   -7.3230 C.3       1 UNK         0.0000
     13 C2          1.3180   -0.6110   -7.1730 C.3       1 UNK         0.0000
     14 C3         -0.8820    1.1570   -7.6570 C.3       1 UNK         0.0000
     15 C4          1.5170    0.8690   -7.5070 C.3       1 UNK         0.0000
     16 C5         -0.1610   -2.1860   -6.0790 C.3       1 UNK         0.0000
     17 C6          0.9510   -4.1670    0.0990 C.3       1 UNK         0.0000
     18 C7          0.7630   -5.5860   -0.4450 C.3       1 UNK         0.0000
     19 C8          0.8030   -4.1920    1.6240 C.3       1 UNK         0.0000
     20 C9         -0.5430   -2.2410   -4.5980 C.3       1 UNK         0.0000
     21 C10         0.5970    2.7310   -8.7520 C.3       1 UNK         0.0000
     22 C11        -0.6030   -6.1170   -0.0030 C.3       1 UNK         0.0000
     23 C12        -0.5660   -4.7780    1.9860 C.3       1 UNK         0.0000
     24 C13         2.3770   -3.0360   -1.4280 C.ar      1 UNK         0.0000
     25 C14         1.3830   -1.8370   -3.2660 C.ar      1 UNK         0.0000
     26 C15         3.6400   -2.8870   -2.0260 C.ar      1 UNK         0.0000
     27 C16         1.2650   -2.5110   -2.0500 C.ar      1 UNK         0.0000
     28 C17         3.7580   -2.2020   -3.2600 C.ar      1 UNK         0.0000
     29 C18         2.6130   -1.6830   -3.8740 C.ar      1 UNK         0.0000
     30 C19         4.8140   -3.4040   -1.4330 C.ar      1 UNK         0.0000
     31 C20         5.5310   -5.2370   -0.0460 C.ar      1 UNK         0.0000
     32 C21         6.0320   -2.5740   -3.2160 C.ar      1 UNK         0.0000
     33 C22         6.7210   -5.1740    0.6720 C.ar      1 UNK         0.0000
     34 C23         7.4770   -6.3250    0.8570 C.ar      1 UNK         0.0000
     35 C24         5.1090   -6.4470   -0.5840 C.ar      1 UNK         0.0000
     36 C25         7.0490   -7.5300    0.3180 C.ar      1 UNK         0.0000
     37 C26         5.8690   -7.5880   -0.3990 C.ar      1 UNK         0.0000
     38 C27         8.2880   -4.7380    2.2030 C.3       1 UNK         0.0000
     39 H1         -2.0210   -0.4510   -6.7850 H         1 UNK         0.0000
     40 H2         -1.1080   -0.9030   -8.2450 H         1 UNK         0.0000
     41 H3          1.3180   -1.1960   -8.0940 H         1 UNK         0.0000
     42 H4          2.1270   -0.9500   -6.5260 H         1 UNK         0.0000
     43 H5         -0.8830    1.7410   -6.7360 H         1 UNK         0.0000
     44 H6         -1.6910    1.4960   -8.3040 H         1 UNK         0.0000
     45 H7          2.4560    0.9970   -8.0450 H         1 UNK         0.0000
     46 H8          1.5430    1.4490   -6.5850 H         1 UNK         0.0000
     47 H9         -0.9590   -2.6300   -6.6750 H         1 UNK         0.0000
     48 H10         0.7630   -2.7410   -6.2360 H         1 UNK         0.0000
     49 H11         0.1960   -3.5080   -0.3300 H         1 UNK         0.0000
     50 H12         0.8120   -5.5680   -1.5340 H         1 UNK         0.0000
     51 H13         1.5490   -6.2330   -0.0550 H         1 UNK         0.0000
     52 H14         1.5890   -4.8120    2.0550 H         1 UNK         0.0000
     53 H15         0.8800   -3.1780    2.0140 H         1 UNK         0.0000
     54 H16        -1.5910   -1.9650   -4.4830 H         1 UNK         0.0000
     55 H17        -0.3910   -3.2520   -4.2210 H         1 UNK         0.0000
     56 H18         0.2300    3.3910   -7.9670 H         1 UNK         0.0000
     57 H19         1.6590    2.9180   -8.9160 H         1 UNK         0.0000
     58 H20         0.0490    2.9220   -9.6750 H         1 UNK         0.0000
     59 H21        -1.3910   -5.4930   -0.4280 H         1 UNK         0.0000
     60 H22        -0.7250   -7.1430   -0.3520 H         1 UNK         0.0000
     61 H23        -1.3510   -4.1360    1.5870 H         1 UNK         0.0000
     62 H24        -0.6600   -4.8380    3.0700 H         1 UNK         0.0000
     63 H25         0.2930   -2.6240   -1.5930 H         1 UNK         0.0000
     64 H26         2.6910   -1.1630   -4.8170 H         1 UNK         0.0000
     65 H27         4.1910   -3.7580    0.4820 H         1 UNK         0.0000
     66 H28         6.9970   -2.4520   -3.6860 H         1 UNK         0.0000
     67 H29         7.6390   -8.4230    0.4580 H         1 UNK         0.0000
     68 H30         5.5390   -8.5270   -0.8180 H         1 UNK         0.0000
     69 H31         7.8360   -4.8830    3.1840 H         1 UNK         0.0000
     70 H32         9.1900   -4.1320    2.2840 H         1 UNK         0.0000
@<TRIPOS>BOND
     1    1   35 1
     2    2   17 1
     3    2   24 1
     4    3   22 1
     5    3   23 1
     6    4   20 1
     7    4   25 1
     8    5   33 1
     9    5   38 1
    10    6   34 1
    11    6   38 1
    12    7   12 1
    13    7   13 1
    14    7   16 1
    15    8   14 1
    16    8   15 1
    17    8   21 1
    18    9   30 1
    19    9   31 1
    20    9   65 1
    21   10   28 ar
    22   10   32 ar
    23   11   30 ar
    24   11   32 ar
    25   12   14 1
    26   12   39 1
    27   12   40 1
    28   13   15 1
    29   13   41 1
    30   13   42 1
    31   14   43 1
    32   14   44 1
    33   15   45 1
    34   15   46 1
    35   16   20 1
    36   16   47 1
    37   16   48 1
    38   17   18 1
    39   17   19 1
    40   17   49 1
    41   18   22 1
    42   18   50 1
    43   18   51 1
    44   19   23 1
    45   19   52 1
    46   19   53 1
    47   20   54 1
    48   20   55 1
    49   21   56 1
    50   21   57 1
    51   21   58 1
    52   22   59 1
    53   22   60 1
    54   23   61 1
    55   23   62 1
    56   24   26 ar
    57   24   27 ar
    58   25   27 ar
    59   25   29 ar
    60   26   28 ar
    61   26   30 ar
    62   27   63 1
    63   28   29 ar
    64   29   64 1
    65   31   33 ar
    66   31   35 ar
    67   32   66 1
    68   33   34 ar
    69   34   36 ar
    70   35   37 ar
    71   36   37 ar
    72   36   67 1
    73   37   68 1
    74   38   69 1
    75   38   70 1
