@<TRIPOS>MOLECULE
10302451
   70    75     0     0     0
SMALL
NO_CHARGES

@<TRIPOS>ATOM
      1 Cl1       -12.3280   -8.1530   11.1160 Cl        1 UNK         0.0000
      2 O1         -9.1510   -4.6290   10.7710 O.3       1 UNK         0.0000
      3 O2        -11.4690   -3.7160    7.4610 O.3       1 UNK         0.0000
      4 O3         -7.8550   -0.9590   13.4970 O.3       1 UNK         0.0000
      5 O4         -7.2430   -8.4060   12.2900 O.3       1 UNK         0.0000
      6 O5         -7.1220  -10.6580   12.0780 O.3       1 UNK         0.0000
      7 N1        -10.4130    1.0070   15.1510 N.3       1 UNK         0.0000
      8 N2        -13.2400    0.6760   15.0650 N.3       1 UNK         0.0000
      9 N3         -9.7690   -6.8370   11.8610 N.pl3     1 UNK         0.0000
     10 N4         -9.0200   -5.1120   15.5140 N.ar      1 UNK         0.0000
     11 N5         -9.6540   -6.9170   14.2120 N.ar      1 UNK         0.0000
     12 C1        -11.0880    0.0730   16.0640 C.3       1 UNK         0.0000
     13 C2        -11.1440    1.1170   13.8800 C.3       1 UNK         0.0000
     14 C3        -12.5100    0.5670   16.3360 C.3       1 UNK         0.0000
     15 C4        -12.5660    1.6100   14.1520 C.3       1 UNK         0.0000
     16 C5         -9.0190    0.6070   14.9230 C.3       1 UNK         0.0000
     17 C6        -10.1240   -3.9690    9.9600 C.3       1 UNK         0.0000
     18 C7         -9.4410   -3.3660    8.7290 C.3       1 UNK         0.0000
     19 C8        -11.1800   -4.9790    9.5020 C.3       1 UNK         0.0000
     20 C9         -8.8740    0.0420   13.5080 C.3       1 UNK         0.0000
     21 C10       -14.6350    1.0760   15.2920 C.3       1 UNK         0.0000
     22 C11       -10.5020   -2.7290    7.8270 C.3       1 UNK         0.0000
     23 C12       -12.1740   -4.2800    8.5690 C.3       1 UNK         0.0000
     24 C13        -8.9160   -4.1050   12.0010 C.ar      1 UNK         0.0000
     25 C14        -8.2600   -2.2510   13.3920 C.ar      1 UNK         0.0000
     26 C15        -9.0930   -4.8940   13.1510 C.ar      1 UNK         0.0000
     27 C16        -8.5050   -2.7970   12.1320 C.ar      1 UNK         0.0000
     28 C17        -8.8450   -4.3380   14.4310 C.ar      1 UNK         0.0000
     29 C18        -8.4220   -3.0090   14.5350 C.ar      1 UNK         0.0000
     30 C19        -9.5130   -6.2410   13.0780 C.ar      1 UNK         0.0000
     31 C20        -9.6870   -8.2290   11.7320 C.ar      1 UNK         0.0000
     32 C21        -9.4120   -6.3580   15.3860 C.ar      1 UNK         0.0000
     33 C22        -8.4760   -8.8800   11.9430 C.ar      1 UNK         0.0000
     34 C23        -8.4030  -10.2620   11.8180 C.ar      1 UNK         0.0000
     35 C24       -10.8170   -8.9630   11.3870 C.ar      1 UNK         0.0000
     36 C25        -9.5350  -10.9870   11.4750 C.ar      1 UNK         0.0000
     37 C26       -10.7360  -10.3370   11.2600 C.ar      1 UNK         0.0000
     38 C27        -6.5100   -9.5500   12.7660 C.3       1 UNK         0.0000
     39 H1        -10.5350    0.0190   17.0020 H         1 UNK         0.0000
     40 H2        -11.1270   -0.9160   15.6070 H         1 UNK         0.0000
     41 H3        -11.1840    0.1390   13.3990 H         1 UNK         0.0000
     42 H4        -10.6320    1.8230   13.2260 H         1 UNK         0.0000
     43 H5        -12.4690    1.5450   16.8170 H         1 UNK         0.0000
     44 H6        -13.0210   -0.1390   16.9900 H         1 UNK         0.0000
     45 H7        -13.1190    1.6640   13.2140 H         1 UNK         0.0000
     46 H8        -12.5270    2.6000   14.6080 H         1 UNK         0.0000
     47 H9         -8.3690    1.4750   15.0350 H         1 UNK         0.0000
     48 H10        -8.7360   -0.1550   15.6490 H         1 UNK         0.0000
     49 H11       -10.6030   -3.1760   10.5370 H         1 UNK         0.0000
     50 H12        -8.7270   -2.6050    9.0450 H         1 UNK         0.0000
     51 H13        -8.9200   -4.1500    8.1810 H         1 UNK         0.0000
     52 H14       -10.6940   -5.7970    8.9690 H         1 UNK         0.0000
     53 H15       -11.7090   -5.3720   10.3690 H         1 UNK         0.0000
     54 H16        -9.8190   -0.3990   13.1950 H         1 UNK         0.0000
     55 H17        -8.6030    0.8450   12.8230 H         1 UNK         0.0000
     56 H18       -15.2790    0.2000   15.2280 H         1 UNK         0.0000
     57 H19       -14.7280    1.5230   16.2820 H         1 UNK         0.0000
     58 H20       -14.9320    1.8030   14.5360 H         1 UNK         0.0000
     59 H21       -10.9950   -1.9170    8.3620 H         1 UNK         0.0000
     60 H22       -10.0270   -2.3360    6.9280 H         1 UNK         0.0000
     61 H23       -12.6880   -3.4890    9.1150 H         1 UNK         0.0000
     62 H24       -12.9030   -5.0050    8.2060 H         1 UNK         0.0000
     63 H25        -8.3690   -2.1880   11.2500 H         1 UNK         0.0000
     64 H26        -8.2260   -2.5770   15.5050 H         1 UNK         0.0000
     65 H27       -10.0040   -6.2920   11.0930 H         1 UNK         0.0000
     66 H28        -9.5440   -6.9520   16.2780 H         1 UNK         0.0000
     67 H29        -9.4780  -12.0600   11.3730 H         1 UNK         0.0000
     68 H30       -11.6150  -10.9050   10.9930 H         1 UNK         0.0000
     69 H31        -6.6270   -9.6580   13.8440 H         1 UNK         0.0000
     70 H32        -5.4560   -9.4700   12.5010 H         1 UNK         0.0000
@<TRIPOS>BOND
     1    1   35 1
     2    2   17 1
     3    2   24 1
     4    3   22 1
     5    3   23 1
     6    4   20 1
     7    4   25 1
     8    5   33 1
     9    5   38 1
    10    6   34 1
    11    6   38 1
    12    7   12 1
    13    7   13 1
    14    7   16 1
    15    8   14 1
    16    8   15 1
    17    8   21 1
    18    9   30 1
    19    9   31 1
    20    9   65 1
    21   10   28 ar
    22   10   32 ar
    23   11   30 ar
    24   11   32 ar
    25   12   14 1
    26   12   39 1
    27   12   40 1
    28   13   15 1
    29   13   41 1
    30   13   42 1
    31   14   43 1
    32   14   44 1
    33   15   45 1
    34   15   46 1
    35   16   20 1
    36   16   47 1
    37   16   48 1
    38   17   18 1
    39   17   19 1
    40   17   49 1
    41   18   22 1
    42   18   50 1
    43   18   51 1
    44   19   23 1
    45   19   52 1
    46   19   53 1
    47   20   54 1
    48   20   55 1
    49   21   56 1
    50   21   57 1
    51   21   58 1
    52   22   59 1
    53   22   60 1
    54   23   61 1
    55   23   62 1
    56   24   26 ar
    57   24   27 ar
    58   25   27 ar
    59   25   29 ar
    60   26   28 ar
    61   26   30 ar
    62   27   63 1
    63   28   29 ar
    64   29   64 1
    65   31   33 ar
    66   31   35 ar
    67   32   66 1
    68   33   34 ar
    69   34   36 ar
    70   35   37 ar
    71   36   37 ar
    72   36   67 1
    73   37   68 1
    74   38   69 1
    75   38   70 1
