@<TRIPOS>MOLECULE
10302451
   70    75     0     0     0
SMALL
NO_CHARGES

@<TRIPOS>ATOM
      1 Cl1        -9.0800   -9.4570   10.0330 Cl        1 UNK         0.0000
      2 O1         -9.8190   -6.2810   13.1520 O.3       1 UNK         0.0000
      3 O2         -7.4690   -9.4330   14.4570 O.3       1 UNK         0.0000
      4 O3         -8.0310   -1.9480   13.9350 O.3       1 UNK         0.0000
      5 O4        -13.2170   -6.2790    9.7470 O.3       1 UNK         0.0000
      6 O5        -14.3730   -7.6170    8.3300 O.3       1 UNK         0.0000
      7 N1         -9.8990    0.6300   15.1840 N.3       1 UNK         0.0000
      8 N2        -12.7330    0.4570   14.9590 N.3       1 UNK         0.0000
      9 N3        -10.4830   -6.9500   10.7950 N.pl3     1 UNK         0.0000
     10 N4         -9.2840   -3.2310    9.5250 N.ar      1 UNK         0.0000
     11 N5        -10.1580   -5.3340    9.1130 N.ar      1 UNK         0.0000
     12 C1        -10.6720   -0.2390   16.0830 C.3       1 UNK         0.0000
     13 C2        -10.5570    0.7470   13.8750 C.3       1 UNK         0.0000
     14 C3        -12.0750    0.3410   16.2690 C.3       1 UNK         0.0000
     15 C4        -11.9600    1.3270   14.0610 C.3       1 UNK         0.0000
     16 C5         -8.5200    0.1450   15.0390 C.3       1 UNK         0.0000
     17 C6         -8.8630   -7.0060   13.9280 C.3       1 UNK         0.0000
     18 C7         -9.5460   -8.2050   14.5920 C.3       1 UNK         0.0000
     19 C8         -7.7400   -7.5110   13.0170 C.3       1 UNK         0.0000
     20 C9         -8.3730   -0.5810   13.7000 C.3       1 UNK         0.0000
     21 C10       -14.1120    0.9420   15.1030 C.3       1 UNK         0.0000
     22 C11        -8.4990   -9.0200   15.3560 C.3       1 UNK         0.0000
     23 C12        -6.7630   -8.3530   13.8420 C.3       1 UNK         0.0000
     24 C13        -9.4360   -5.0650   12.6830 C.ar      1 UNK         0.0000
     25 C14        -8.5310   -2.8670   13.0690 C.ar      1 UNK         0.0000
     26 C15        -9.5580   -4.7650   11.3150 C.ar      1 UNK         0.0000
     27 C16        -8.9250   -4.1180   13.5430 C.ar      1 UNK         0.0000
     28 C17        -9.1570   -3.4940   10.8350 C.ar      1 UNK         0.0000
     29 C18        -8.6470   -2.5480   11.7310 C.ar      1 UNK         0.0000
     30 C19       -10.0740   -5.6970   10.3870 C.ar      1 UNK         0.0000
     31 C20       -11.2020   -7.7720    9.9190 C.ar      1 UNK         0.0000
     32 C21        -9.7700   -4.1350    8.7080 C.ar      1 UNK         0.0000
     33 C22       -12.4670   -7.3890    9.4840 C.ar      1 UNK         0.0000
     34 C23       -13.1740   -8.2080    8.6100 C.ar      1 UNK         0.0000
     35 C24       -10.6550   -8.9750    9.4870 C.ar      1 UNK         0.0000
     36 C25       -12.6200   -9.4060    8.1830 C.ar      1 UNK         0.0000
     37 C26       -11.3650   -9.7860    8.6210 C.ar      1 UNK         0.0000
     38 C27       -14.2190   -6.2370    8.7130 C.3       1 UNK         0.0000
     39 H1        -10.1720   -0.2990   17.0490 H         1 UNK         0.0000
     40 H2        -10.7460   -1.2370   15.6490 H         1 UNK         0.0000
     41 H3        -10.6290   -0.2400   13.4160 H         1 UNK         0.0000
     42 H4         -9.9730    1.4050   13.2320 H         1 UNK         0.0000
     43 H5        -12.0020    1.3280   16.7280 H         1 UNK         0.0000
     44 H6        -12.6590   -0.3170   16.9120 H         1 UNK         0.0000
     45 H7        -12.4610    1.3870   13.0940 H         1 UNK         0.0000
     46 H8        -11.8870    2.3250   14.4950 H         1 UNK         0.0000
     47 H9         -7.8330    0.9910   15.0710 H         1 UNK         0.0000
     48 H10        -8.2890   -0.5420   15.8520 H         1 UNK         0.0000
     49 H11        -8.4450   -6.3530   14.6960 H         1 UNK         0.0000
     50 H12       -10.3100   -7.8510   15.2850 H         1 UNK         0.0000
     51 H13       -10.0080   -8.8300   13.8280 H         1 UNK         0.0000
     52 H14        -8.1660   -8.1230   12.2210 H         1 UNK         0.0000
     53 H15        -7.2130   -6.6620   12.5830 H         1 UNK         0.0000
     54 H16        -9.3140   -0.5310   13.1540 H         1 UNK         0.0000
     55 H17        -7.5870   -0.1050   13.1140 H         1 UNK         0.0000
     56 H18       -14.5740    1.0190   14.1200 H         1 UNK         0.0000
     57 H19       -14.6800    0.2430   15.7180 H         1 UNK         0.0000
     58 H20       -14.1050    1.9220   15.5810 H         1 UNK         0.0000
     59 H21        -8.0670   -8.4060   16.1480 H         1 UNK         0.0000
     60 H22        -8.9720   -9.8980   15.7960 H         1 UNK         0.0000
     61 H23        -6.3090   -7.7300   14.6130 H         1 UNK         0.0000
     62 H24        -5.9860   -8.7510   13.1900 H         1 UNK         0.0000
     63 H25        -8.8300   -4.3460   14.5940 H         1 UNK         0.0000
     64 H26        -8.3420   -1.5740   11.3760 H         1 UNK         0.0000
     65 H27       -10.2730   -7.2610   11.6900 H         1 UNK         0.0000
     66 H28        -9.8580   -3.8910    7.6600 H         1 UNK         0.0000
     67 H29       -13.1710  -10.0440    7.5090 H         1 UNK         0.0000
     68 H30       -10.9380  -10.7200    8.2860 H         1 UNK         0.0000
     69 H31       -13.8720   -5.6420    7.8680 H         1 UNK         0.0000
     70 H32       -15.1560   -5.8400    9.1020 H         1 UNK         0.0000
@<TRIPOS>BOND
     1    1   35 1
     2    2   17 1
     3    2   24 1
     4    3   22 1
     5    3   23 1
     6    4   20 1
     7    4   25 1
     8    5   33 1
     9    5   38 1
    10    6   34 1
    11    6   38 1
    12    7   12 1
    13    7   13 1
    14    7   16 1
    15    8   14 1
    16    8   15 1
    17    8   21 1
    18    9   30 1
    19    9   31 1
    20    9   65 1
    21   10   28 ar
    22   10   32 ar
    23   11   30 ar
    24   11   32 ar
    25   12   14 1
    26   12   39 1
    27   12   40 1
    28   13   15 1
    29   13   41 1
    30   13   42 1
    31   14   43 1
    32   14   44 1
    33   15   45 1
    34   15   46 1
    35   16   20 1
    36   16   47 1
    37   16   48 1
    38   17   18 1
    39   17   19 1
    40   17   49 1
    41   18   22 1
    42   18   50 1
    43   18   51 1
    44   19   23 1
    45   19   52 1
    46   19   53 1
    47   20   54 1
    48   20   55 1
    49   21   56 1
    50   21   57 1
    51   21   58 1
    52   22   59 1
    53   22   60 1
    54   23   61 1
    55   23   62 1
    56   24   26 ar
    57   24   27 ar
    58   25   27 ar
    59   25   29 ar
    60   26   28 ar
    61   26   30 ar
    62   27   63 1
    63   28   29 ar
    64   29   64 1
    65   31   33 ar
    66   31   35 ar
    67   32   66 1
    68   33   34 ar
    69   34   36 ar
    70   35   37 ar
    71   36   37 ar
    72   36   67 1
    73   37   68 1
    74   38   69 1
    75   38   70 1
