@<TRIPOS>MOLECULE
10302451
   70    75     0     0     0
SMALL
NO_CHARGES

@<TRIPOS>ATOM
      1 Cl1        13.0260   -5.1150   -9.2310 Cl        1 UNK         0.0000
      2 O1          8.9630   -3.7410  -11.4450 O.3       1 UNK         0.0000
      3 O2          7.0190   -6.7020   -9.2970 O.3       1 UNK         0.0000
      4 O3          7.9230   -3.6660  -16.0810 O.3       1 UNK         0.0000
      5 O4         11.3350   -0.2360  -10.0240 O.3       1 UNK         0.0000
      6 O5         12.6320    0.6690   -8.4030 O.3       1 UNK         0.0000
      7 N1          6.1910   -6.0660  -15.1730 N.3       1 UNK         0.0000
      8 N2          5.5660   -8.1550  -13.3420 N.3       1 UNK         0.0000
      9 N3         11.3150   -3.1670  -10.6830 N.pl3     1 UNK         0.0000
     10 N4         12.3270   -2.5940  -14.6240 N.ar      1 UNK         0.0000
     11 N5         12.8630   -2.6230  -12.3730 N.ar      1 UNK         0.0000
     12 C1          7.1250   -7.1800  -14.9580 C.3       1 UNK         0.0000
     13 C2          4.8010   -6.5030  -14.9780 C.3       1 UNK         0.0000
     14 C3          6.9560   -7.7180  -13.5360 C.3       1 UNK         0.0000
     15 C4          4.6320   -7.0410  -13.5560 C.3       1 UNK         0.0000
     16 C5          6.3750   -5.4730  -16.5040 C.3       1 UNK         0.0000
     17 C6          8.1700   -4.8990  -11.1790 C.3       1 UNK         0.0000
     18 C7          9.0120   -5.9350  -10.4280 C.3       1 UNK         0.0000
     19 C8          6.9680   -4.5090  -10.3130 C.3       1 UNK         0.0000
     20 C9          7.8140   -4.9740  -16.6460 C.3       1 UNK         0.0000
     21 C10         5.3820   -8.7480  -12.0110 C.3       1 UNK         0.0000
     22 C11         8.1330   -7.1390  -10.0770 C.3       1 UNK         0.0000
     23 C12         6.1680   -5.7690   -9.9670 C.3       1 UNK         0.0000
     24 C13         9.3460   -3.5390  -12.7320 C.ar      1 UNK         0.0000
     25 C14         8.8300   -3.4990  -15.0840 C.ar      1 UNK         0.0000
     26 C15        10.6680   -3.1620  -13.0240 C.ar      1 UNK         0.0000
     27 C16         8.4430   -3.7030  -13.7590 C.ar      1 UNK         0.0000
     28 C17        11.0590   -2.9540  -14.3700 C.ar      1 UNK         0.0000
     29 C18        10.1240   -3.1320  -15.3960 C.ar      1 UNK         0.0000
     30 C19        11.6360   -2.9790  -12.0120 C.ar      1 UNK         0.0000
     31 C20        12.1150   -2.6010   -9.6820 C.ar      1 UNK         0.0000
     32 C21        13.1840   -2.4390  -13.6430 C.ar      1 UNK         0.0000
     33 C22        12.0670   -1.2310   -9.4430 C.ar      1 UNK         0.0000
     34 C23        12.8600   -0.6770   -8.4450 C.ar      1 UNK         0.0000
     35 C24        12.9610   -3.4080   -8.9300 C.ar      1 UNK         0.0000
     36 C25        13.7020   -1.4890   -7.6980 C.ar      1 UNK         0.0000
     37 C26        13.7500   -2.8490   -7.9410 C.ar      1 UNK         0.0000
     38 C27        11.3900    0.8700   -9.1040 C.3       1 UNK         0.0000
     39 H1          8.1480   -6.8280  -15.0950 H         1 UNK         0.0000
     40 H2          6.9140   -7.9740  -15.6750 H         1 UNK         0.0000
     41 H3          4.5640   -7.2890  -15.6950 H         1 UNK         0.0000
     42 H4          4.1290   -5.6580  -15.1300 H         1 UNK         0.0000
     43 H5          7.1930   -6.9300  -12.8190 H         1 UNK         0.0000
     44 H6          7.6270   -8.5630  -13.3840 H         1 UNK         0.0000
     45 H7          3.6090   -7.3920  -13.4190 H         1 UNK         0.0000
     46 H8          4.8420   -6.2470  -12.8390 H         1 UNK         0.0000
     47 H9          6.1740   -6.2250  -17.2670 H         1 UNK         0.0000
     48 H10         5.6870   -4.6370  -16.6280 H         1 UNK         0.0000
     49 H11         7.8190   -5.3270  -12.1190 H         1 UNK         0.0000
     50 H12         9.8390   -6.2590  -11.0600 H         1 UNK         0.0000
     51 H13         9.4040   -5.4920   -9.5120 H         1 UNK         0.0000
     52 H14         7.3190   -4.0370   -9.3950 H         1 UNK         0.0000
     53 H15         6.3330   -3.8150  -10.8620 H         1 UNK         0.0000
     54 H16         8.4870   -5.6530  -16.1230 H         1 UNK         0.0000
     55 H17         8.0830   -4.9380  -17.7020 H         1 UNK         0.0000
     56 H18         4.4940   -8.3230  -11.5440 H         1 UNK         0.0000
     57 H19         5.2590   -9.8270  -12.1080 H         1 UNK         0.0000
     58 H20         6.2550   -8.5350  -11.3940 H         1 UNK         0.0000
     59 H21         7.7750   -7.6070  -10.9950 H         1 UNK         0.0000
     60 H22         8.7160   -7.8610   -9.5060 H         1 UNK         0.0000
     61 H23         5.7840   -6.2180  -10.8820 H         1 UNK         0.0000
     62 H24         5.3360   -5.5030   -9.3150 H         1 UNK         0.0000
     63 H25         7.4270   -3.9930  -13.5370 H         1 UNK         0.0000
     64 H26        10.4120   -2.9810  -16.4250 H         1 UNK         0.0000
     65 H27        10.5360   -3.6940  -10.4430 H         1 UNK         0.0000
     66 H28        14.1960   -2.1480  -13.8820 H         1 UNK         0.0000
     67 H29        14.3200   -1.0580   -6.9260 H         1 UNK         0.0000
     68 H30        14.4060   -3.4770   -7.3580 H         1 UNK         0.0000
     69 H31        10.5500    0.8350   -8.4110 H         1 UNK         0.0000
     70 H32        11.4030    1.8180   -9.6420 H         1 UNK         0.0000
@<TRIPOS>BOND
     1    1   35 1
     2    2   17 1
     3    2   24 1
     4    3   22 1
     5    3   23 1
     6    4   20 1
     7    4   25 1
     8    5   33 1
     9    5   38 1
    10    6   34 1
    11    6   38 1
    12    7   12 1
    13    7   13 1
    14    7   16 1
    15    8   14 1
    16    8   15 1
    17    8   21 1
    18    9   30 1
    19    9   31 1
    20    9   65 1
    21   10   28 ar
    22   10   32 ar
    23   11   30 ar
    24   11   32 ar
    25   12   14 1
    26   12   39 1
    27   12   40 1
    28   13   15 1
    29   13   41 1
    30   13   42 1
    31   14   43 1
    32   14   44 1
    33   15   45 1
    34   15   46 1
    35   16   20 1
    36   16   47 1
    37   16   48 1
    38   17   18 1
    39   17   19 1
    40   17   49 1
    41   18   22 1
    42   18   50 1
    43   18   51 1
    44   19   23 1
    45   19   52 1
    46   19   53 1
    47   20   54 1
    48   20   55 1
    49   21   56 1
    50   21   57 1
    51   21   58 1
    52   22   59 1
    53   22   60 1
    54   23   61 1
    55   23   62 1
    56   24   26 ar
    57   24   27 ar
    58   25   27 ar
    59   25   29 ar
    60   26   28 ar
    61   26   30 ar
    62   27   63 1
    63   28   29 ar
    64   29   64 1
    65   31   33 ar
    66   31   35 ar
    67   32   66 1
    68   33   34 ar
    69   34   36 ar
    70   35   37 ar
    71   36   37 ar
    72   36   67 1
    73   37   68 1
    74   38   69 1
    75   38   70 1
