@<TRIPOS>MOLECULE
10302451
   70    75     0     0     0
SMALL
NO_CHARGES

@<TRIPOS>ATOM
      1 Cl1         9.7880   -6.7000   -9.2170 Cl        1 UNK         0.0000
      2 O1          6.7220   -4.7900   -8.5950 O.3       1 UNK         0.0000
      3 O2          5.8800   -4.5520   -4.5460 O.3       1 UNK         0.0000
      4 O3          3.2810   -7.4340  -10.5320 O.3       1 UNK         0.0000
      5 O4         10.4560   -1.6690  -10.4560 O.3       1 UNK         0.0000
      6 O5         12.7060   -1.7190  -10.2020 O.3       1 UNK         0.0000
      7 N1          3.0200   -8.9290   -8.3190 N.3       1 UNK         0.0000
      8 N2          2.2040   -8.7080   -5.6000 N.3       1 UNK         0.0000
      9 N3          8.6880   -4.0590  -10.0230 N.pl3     1 UNK         0.0000
     10 N4          6.9820   -6.0480  -13.1880 N.ar      1 UNK         0.0000
     11 N5          8.6730   -4.7600  -12.2710 N.ar      1 UNK         0.0000
     12 C1          3.9770   -8.5310   -7.2780 C.3       1 UNK         0.0000
     13 C2          1.9900   -9.8230   -7.7690 C.3       1 UNK         0.0000
     14 C3          3.2330   -7.8150   -6.1490 C.3       1 UNK         0.0000
     15 C4          1.2450   -9.1060   -6.6410 C.3       1 UNK         0.0000
     16 C5          3.7070   -9.5550   -9.4560 C.3       1 UNK         0.0000
     17 C6          6.2060   -5.1500   -7.3120 C.3       1 UNK         0.0000
     18 C7          7.3610   -5.2760   -6.3130 C.3       1 UNK         0.0000
     19 C8          5.2400   -4.0650   -6.8250 C.3       1 UNK         0.0000
     20 C9          3.3030   -8.8470  -10.7500 C.3       1 UNK         0.0000
     21 C10         1.5160   -8.0830   -4.4630 C.3       1 UNK         0.0000
     22 C11         6.7930   -5.5840   -4.9240 C.3       1 UNK         0.0000
     23 C12         4.7550   -4.4190   -5.4170 C.3       1 UNK         0.0000
     24 C13         6.1980   -5.4320   -9.6710 C.ar      1 UNK         0.0000
     25 C14         4.4600   -6.7730  -10.6630 C.ar      1 UNK         0.0000
     26 C15         6.8720   -5.4100  -10.9040 C.ar      1 UNK         0.0000
     27 C16         5.0040   -6.1090   -9.5620 C.ar      1 UNK         0.0000
     28 C17         6.3190   -6.0830  -12.0210 C.ar      1 UNK         0.0000
     29 C18         5.1070   -6.7680  -11.8820 C.ar      1 UNK         0.0000
     30 C19         8.1000   -4.7310  -11.0740 C.ar      1 UNK         0.0000
     31 C20        10.0800   -4.0830   -9.8670 C.ar      1 UNK         0.0000
     32 C21         8.1200   -5.4010  -13.2870 C.ar      1 UNK         0.0000
     33 C22        10.8270   -2.9310  -10.0920 C.ar      1 UNK         0.0000
     34 C23        12.2080   -2.9610   -9.9310 C.ar      1 UNK         0.0000
     35 C24        10.7170   -5.2600   -9.4920 C.ar      1 UNK         0.0000
     36 C25        12.8360   -4.1400   -9.5560 C.ar      1 UNK         0.0000
     37 C26        12.0910   -5.2830   -9.3380 C.ar      1 UNK         0.0000
     38 C27        11.5770   -0.8270  -10.1280 C.3       1 UNK         0.0000
     39 H1          4.7220   -7.8600   -7.7060 H         1 UNK         0.0000
     40 H2          4.4730   -9.4180   -6.8810 H         1 UNK         0.0000
     41 H3          2.4630  -10.7240   -7.3780 H         1 UNK         0.0000
     42 H4          1.2860  -10.0930   -8.5560 H         1 UNK         0.0000
     43 H5          2.7600   -6.9130   -6.5410 H         1 UNK         0.0000
     44 H6          3.9370   -7.5440   -5.3630 H         1 UNK         0.0000
     45 H7          0.5010   -9.7780   -6.2120 H         1 UNK         0.0000
     46 H8          0.7500   -8.2200   -7.0380 H         1 UNK         0.0000
     47 H9          4.7860   -9.4720   -9.3190 H         1 UNK         0.0000
     48 H10         3.4280  -10.6070   -9.5150 H         1 UNK         0.0000
     49 H11         5.6800   -6.1030   -7.3830 H         1 UNK         0.0000
     50 H12         8.0230   -6.0840   -6.6230 H         1 UNK         0.0000
     51 H13         7.9180   -4.3400   -6.2790 H         1 UNK         0.0000
     52 H14         5.7550   -3.1040   -6.8020 H         1 UNK         0.0000
     53 H15         4.3880   -4.0070   -7.5000 H         1 UNK         0.0000
     54 H16         4.0210   -9.0820  -11.5330 H         1 UNK         0.0000
     55 H17         2.3110   -9.1830  -11.0530 H         1 UNK         0.0000
     56 H18         2.1010   -8.2340   -3.5560 H         1 UNK         0.0000
     57 H19         1.4040   -7.0150   -4.6490 H         1 UNK         0.0000
     58 H20         0.5310   -8.5350   -4.3400 H         1 UNK         0.0000
     59 H21         6.2710   -6.5410   -4.9490 H         1 UNK         0.0000
     60 H22         7.6070   -5.6330   -4.2010 H         1 UNK         0.0000
     61 H23         4.2060   -5.3610   -5.4480 H         1 UNK         0.0000
     62 H24         4.1010   -3.6290   -5.0480 H         1 UNK         0.0000
     63 H25         4.4830   -6.1280   -8.6160 H         1 UNK         0.0000
     64 H26         4.6790   -7.2890  -12.7260 H         1 UNK         0.0000
     65 H27         8.1380   -3.5700   -9.3900 H         1 UNK         0.0000
     66 H28         8.6270   -5.3920  -14.2410 H         1 UNK         0.0000
     67 H29        13.9080   -4.1640   -9.4360 H         1 UNK         0.0000
     68 H30        12.5840   -6.1990   -9.0460 H         1 UNK         0.0000
     69 H31        11.4730   -0.4260   -9.1200 H         1 UNK         0.0000
     70 H32        11.6790   -0.0200  -10.8520 H         1 UNK         0.0000
@<TRIPOS>BOND
     1    1   35 1
     2    2   17 1
     3    2   24 1
     4    3   22 1
     5    3   23 1
     6    4   20 1
     7    4   25 1
     8    5   33 1
     9    5   38 1
    10    6   34 1
    11    6   38 1
    12    7   12 1
    13    7   13 1
    14    7   16 1
    15    8   14 1
    16    8   15 1
    17    8   21 1
    18    9   30 1
    19    9   31 1
    20    9   65 1
    21   10   28 ar
    22   10   32 ar
    23   11   30 ar
    24   11   32 ar
    25   12   14 1
    26   12   39 1
    27   12   40 1
    28   13   15 1
    29   13   41 1
    30   13   42 1
    31   14   43 1
    32   14   44 1
    33   15   45 1
    34   15   46 1
    35   16   20 1
    36   16   47 1
    37   16   48 1
    38   17   18 1
    39   17   19 1
    40   17   49 1
    41   18   22 1
    42   18   50 1
    43   18   51 1
    44   19   23 1
    45   19   52 1
    46   19   53 1
    47   20   54 1
    48   20   55 1
    49   21   56 1
    50   21   57 1
    51   21   58 1
    52   22   59 1
    53   22   60 1
    54   23   61 1
    55   23   62 1
    56   24   26 ar
    57   24   27 ar
    58   25   27 ar
    59   25   29 ar
    60   26   28 ar
    61   26   30 ar
    62   27   63 1
    63   28   29 ar
    64   29   64 1
    65   31   33 ar
    66   31   35 ar
    67   32   66 1
    68   33   34 ar
    69   34   36 ar
    70   35   37 ar
    71   36   37 ar
    72   36   67 1
    73   37   68 1
    74   38   69 1
    75   38   70 1
