@<TRIPOS>MOLECULE
10302451
   70    75     0     0     0
SMALL
NO_CHARGES

@<TRIPOS>ATOM
      1 Cl1         9.9210   -2.0830  -11.4380 Cl        1 UNK         0.0000
      2 O1          6.5670   -4.8430   -8.5230 O.3       1 UNK         0.0000
      3 O2          6.0770   -4.4870   -4.4250 O.3       1 UNK         0.0000
      4 O3          2.9400   -7.4390  -10.1620 O.3       1 UNK         0.0000
      5 O4         10.0110   -6.4720   -8.6070 O.3       1 UNK         0.0000
      6 O5         12.2710   -6.5490   -8.4660 O.3       1 UNK         0.0000
      7 N1          2.7310   -8.8910   -7.9620 N.3       1 UNK         0.0000
      8 N2          2.1700   -8.5470   -5.1910 N.3       1 UNK         0.0000
      9 N3          8.5160   -4.3100  -10.0600 N.pl3     1 UNK         0.0000
     10 N4          6.6080   -6.4230  -13.0230 N.ar      1 UNK         0.0000
     11 N5          8.3890   -5.1610  -12.2520 N.ar      1 UNK         0.0000
     12 C1          3.8110   -8.6060   -7.0070 C.3       1 UNK         0.0000
     13 C2          1.6460   -9.6440   -7.3160 C.3       1 UNK         0.0000
     14 C3          3.2540   -7.7930   -5.8370 C.3       1 UNK         0.0000
     15 C4          1.0890   -8.8310   -6.1460 C.3       1 UNK         0.0000
     16 C5          3.2420   -9.6070   -9.1380 C.3       1 UNK         0.0000
     17 C6          6.1390   -5.1500   -7.1950 C.3       1 UNK         0.0000
     18 C7          7.3620   -5.3290   -6.2910 C.3       1 UNK         0.0000
     19 C8          5.2810   -4.0010   -6.6560 C.3       1 UNK         0.0000
     20 C9          2.8560   -8.8450  -10.4070 C.3       1 UNK         0.0000
     21 C10         1.6590   -7.8320   -4.0150 C.3       1 UNK         0.0000
     22 C11         6.8930   -5.5780   -4.8540 C.3       1 UNK         0.0000
     23 C12         4.8930   -4.3010   -5.2050 C.3       1 UNK         0.0000
     24 C13         5.9770   -5.5310   -9.5350 C.ar      1 UNK         0.0000
     25 C14         4.1440   -6.8470  -10.3760 C.ar      1 UNK         0.0000
     26 C15         6.6080   -5.6260  -10.7870 C.ar      1 UNK         0.0000
     27 C16         4.7560   -6.1390   -9.3420 C.ar      1 UNK         0.0000
     28 C17         5.9850   -6.3450  -11.8360 C.ar      1 UNK         0.0000
     29 C18         4.7480   -6.9590  -11.6120 C.ar      1 UNK         0.0000
     30 C19         7.8600   -5.0230  -11.0420 C.ar      1 UNK         0.0000
     31 C20         9.9130   -4.3630   -9.9700 C.ar      1 UNK         0.0000
     32 C21         7.7710   -5.8420  -13.2030 C.ar      1 UNK         0.0000
     33 C22        10.5270   -5.3980   -9.2720 C.ar      1 UNK         0.0000
     34 C23        11.9140   -5.4470   -9.1910 C.ar      1 UNK         0.0000
     35 C24        10.6860   -3.3780  -10.5730 C.ar      1 UNK         0.0000
     36 C25        12.6790   -4.4610   -9.7970 C.ar      1 UNK         0.0000
     37 C26        12.0650   -3.4310  -10.4840 C.ar      1 UNK         0.0000
     38 C27        11.1060   -7.3960   -8.4570 C.3       1 UNK         0.0000
     39 H1          4.5960   -8.0370   -7.5050 H         1 UNK         0.0000
     40 H2          4.2230   -9.5450   -6.6340 H         1 UNK         0.0000
     41 H3          2.0340  -10.5940   -6.9480 H         1 UNK         0.0000
     42 H4          0.8530   -9.8310   -8.0400 H         1 UNK         0.0000
     43 H5          2.8670   -6.8430   -6.2060 H         1 UNK         0.0000
     44 H6          4.0470   -7.6060   -5.1130 H         1 UNK         0.0000
     45 H7          0.3040   -9.4000   -5.6480 H         1 UNK         0.0000
     46 H8          0.6770   -7.8930   -6.5190 H         1 UNK         0.0000
     47 H9          4.3280   -9.6800   -9.0750 H         1 UNK         0.0000
     48 H10         2.8110  -10.6070   -9.1700 H         1 UNK         0.0000
     49 H11         5.5530   -6.0700   -7.2030 H         1 UNK         0.0000
     50 H12         7.9480   -6.1800   -6.6350 H         1 UNK         0.0000
     51 H13         7.9740   -4.4270   -6.3230 H         1 UNK         0.0000
     52 H14         5.8520   -3.0720   -6.6950 H         1 UNK         0.0000
     53 H15         4.3810   -3.9030   -7.2610 H         1 UNK         0.0000
     54 H16         3.5360   -9.1140  -11.2140 H         1 UNK         0.0000
     55 H17         1.8360   -9.1040  -10.6900 H         1 UNK         0.0000
     56 H18         1.6910   -6.7580   -4.2000 H         1 UNK         0.0000
     57 H19         0.6290   -8.1360   -3.8240 H         1 UNK         0.0000
     58 H20         2.2740   -8.0700   -3.1480 H         1 UNK         0.0000
     59 H21         6.3150   -6.5020   -4.8160 H         1 UNK         0.0000
     60 H22         7.7590   -5.6640   -4.1990 H         1 UNK         0.0000
     61 H23         4.2900   -5.2080   -5.1720 H         1 UNK         0.0000
     62 H24         4.3190   -3.4670   -4.8020 H         1 UNK         0.0000
     63 H25         4.2690   -6.0660   -8.3800 H         1 UNK         0.0000
     64 H26         4.2660   -7.5130  -12.4030 H         1 UNK         0.0000
     65 H27         8.0090   -3.7730   -9.4300 H         1 UNK         0.0000
     66 H28         8.2440   -5.9230  -14.1710 H         1 UNK         0.0000
     67 H29        13.7550   -4.4970   -9.7290 H         1 UNK         0.0000
     68 H30        12.6640   -2.6650  -10.9540 H         1 UNK         0.0000
     69 H31        11.1350   -8.0940   -9.2940 H         1 UNK         0.0000
     70 H32        11.0310   -7.9330   -7.5130 H         1 UNK         0.0000
@<TRIPOS>BOND
     1    1   35 1
     2    2   17 1
     3    2   24 1
     4    3   22 1
     5    3   23 1
     6    4   20 1
     7    4   25 1
     8    5   33 1
     9    5   38 1
    10    6   34 1
    11    6   38 1
    12    7   12 1
    13    7   13 1
    14    7   16 1
    15    8   14 1
    16    8   15 1
    17    8   21 1
    18    9   30 1
    19    9   31 1
    20    9   65 1
    21   10   28 ar
    22   10   32 ar
    23   11   30 ar
    24   11   32 ar
    25   12   14 1
    26   12   39 1
    27   12   40 1
    28   13   15 1
    29   13   41 1
    30   13   42 1
    31   14   43 1
    32   14   44 1
    33   15   45 1
    34   15   46 1
    35   16   20 1
    36   16   47 1
    37   16   48 1
    38   17   18 1
    39   17   19 1
    40   17   49 1
    41   18   22 1
    42   18   50 1
    43   18   51 1
    44   19   23 1
    45   19   52 1
    46   19   53 1
    47   20   54 1
    48   20   55 1
    49   21   56 1
    50   21   57 1
    51   21   58 1
    52   22   59 1
    53   22   60 1
    54   23   61 1
    55   23   62 1
    56   24   26 ar
    57   24   27 ar
    58   25   27 ar
    59   25   29 ar
    60   26   28 ar
    61   26   30 ar
    62   27   63 1
    63   28   29 ar
    64   29   64 1
    65   31   33 ar
    66   31   35 ar
    67   32   66 1
    68   33   34 ar
    69   34   36 ar
    70   35   37 ar
    71   36   37 ar
    72   36   67 1
    73   37   68 1
    74   38   69 1
    75   38   70 1
