@<TRIPOS>MOLECULE
10302451
   70    75     0     0     0
SMALL
NO_CHARGES

@<TRIPOS>ATOM
      1 Cl1        11.0790   -7.4500   -8.0100 Cl        1 UNK         0.0000
      2 O1          6.7590   -5.4870   -7.8000 O.3       1 UNK         0.0000
      3 O2          6.0010   -4.2360   -3.9240 O.3       1 UNK         0.0000
      4 O3          2.8780   -7.7230   -9.3880 O.3       1 UNK         0.0000
      5 O4          9.5580   -3.2150  -10.6640 O.3       1 UNK         0.0000
      6 O5         11.6650   -2.5270  -11.1270 O.3       1 UNK         0.0000
      7 N1          1.3560  -10.1960   -8.0840 N.3       1 UNK         0.0000
      8 N2         -0.3230  -12.4870   -8.2800 N.3       1 UNK         0.0000
      9 N3          8.9360   -5.6970   -9.0890 N.pl3     1 UNK         0.0000
     10 N4          6.9750   -8.0980  -11.7850 N.ar      1 UNK         0.0000
     11 N5          8.8810   -7.0210  -11.0360 N.ar      1 UNK         0.0000
     12 C1          0.7440  -10.7830   -6.8840 C.3       1 UNK         0.0000
     13 C2          1.6080  -11.2270   -9.1010 C.3       1 UNK         0.0000
     14 C3         -0.5760  -11.4560   -7.2630 C.3       1 UNK         0.0000
     15 C4          0.2880  -11.9000   -9.4810 C.3       1 UNK         0.0000
     16 C5          2.5900   -9.4750   -7.7480 C.3       1 UNK         0.0000
     17 C6          6.1860   -5.4570   -6.4920 C.3       1 UNK         0.0000
     18 C7          7.2930   -5.6010   -5.4440 C.3       1 UNK         0.0000
     19 C8          5.4660   -4.1220   -6.2790 C.3       1 UNK         0.0000
     20 C9          2.4140   -7.9880   -8.0620 C.3       1 UNK         0.0000
     21 C10        -1.5570  -13.2090   -8.6160 C.3       1 UNK         0.0000
     22 C11         6.6800   -5.4870   -4.0450 C.3       1 UNK         0.0000
     23 C12         4.9230   -4.0660   -4.8480 C.3       1 UNK         0.0000
     24 C13         6.1560   -6.2850   -8.7180 C.ar      1 UNK         0.0000
     25 C14         4.1950   -7.4230   -9.5320 C.ar      1 UNK         0.0000
     26 C15         6.8900   -6.7930   -9.8040 C.ar      1 UNK         0.0000
     27 C16         4.8210   -6.6030   -8.5930 C.ar      1 UNK         0.0000
     28 C17         6.2520   -7.6250  -10.7570 C.ar      1 UNK         0.0000
     29 C18         4.8970   -7.9370  -10.6030 C.ar      1 UNK         0.0000
     30 C19         8.2600   -6.5000   -9.9840 C.ar      1 UNK         0.0000
     31 C20        10.2370   -5.2650   -9.3780 C.ar      1 UNK         0.0000
     32 C21         8.2460   -7.7930  -11.9010 C.ar      1 UNK         0.0000
     33 C22        10.4380   -4.1050  -10.1190 C.ar      1 UNK         0.0000
     34 C23        11.7320   -3.6800  -10.3980 C.ar      1 UNK         0.0000
     35 C24        11.3280   -5.9990   -8.9290 C.ar      1 UNK         0.0000
     36 C25        12.8160   -4.4180   -9.9460 C.ar      1 UNK         0.0000
     37 C26        12.6120   -5.5730   -9.2140 C.ar      1 UNK         0.0000
     38 C27        10.3270   -2.0290  -10.9370 C.3       1 UNK         0.0000
     39 H1          0.5550   -9.9980   -6.1510 H         1 UNK         0.0000
     40 H2          1.4200  -11.5230   -6.4560 H         1 UNK         0.0000
     41 H3          2.2950  -11.9720   -8.6990 H         1 UNK         0.0000
     42 H4          2.0490  -10.7660   -9.9850 H         1 UNK         0.0000
     43 H5         -1.2620  -10.7090   -7.6660 H         1 UNK         0.0000
     44 H6         -1.0170  -11.9170   -6.3800 H         1 UNK         0.0000
     45 H7          0.4770  -12.6850  -10.2130 H         1 UNK         0.0000
     46 H8         -0.3880  -11.1600   -9.9080 H         1 UNK         0.0000
     47 H9          2.8050   -9.5980   -6.6860 H         1 UNK         0.0000
     48 H10         3.4160   -9.8750   -8.3350 H         1 UNK         0.0000
     49 H11         5.4740   -6.2770   -6.3850 H         1 UNK         0.0000
     50 H12         7.7740   -6.5730   -5.5530 H         1 UNK         0.0000
     51 H13         8.0310   -4.8110   -5.5820 H         1 UNK         0.0000
     52 H14         6.1680   -3.3020   -6.4340 H         1 UNK         0.0000
     53 H15         4.6410   -4.0360   -6.9840 H         1 UNK         0.0000
     54 H16         1.3610   -7.7230   -7.9870 H         1 UNK         0.0000
     55 H17         2.9890   -7.3950   -7.3510 H         1 UNK         0.0000
     56 H18        -1.3110  -14.2230   -8.9280 H         1 UNK         0.0000
     57 H19        -2.2070  -13.2450   -7.7420 H         1 UNK         0.0000
     58 H20        -2.0700  -12.6930   -9.4280 H         1 UNK         0.0000
     59 H21         5.9720   -6.3030   -3.8920 H         1 UNK         0.0000
     60 H22         7.4690   -5.5470   -3.2960 H         1 UNK         0.0000
     61 H23         4.1930   -4.8620   -4.7050 H         1 UNK         0.0000
     62 H24         4.4470   -3.1000   -4.6770 H         1 UNK         0.0000
     63 H25         4.2550   -6.2140   -7.7600 H         1 UNK         0.0000
     64 H26         4.4020   -8.5740  -11.3210 H         1 UNK         0.0000
     65 H27         8.5100   -5.4320   -8.2580 H         1 UNK         0.0000
     66 H28         8.7970   -8.1900  -12.7410 H         1 UNK         0.0000
     67 H29        13.8200   -4.0910  -10.1670 H         1 UNK         0.0000
     68 H30        13.4590   -6.1440   -8.8640 H         1 UNK         0.0000
     69 H31        10.2900   -1.3460  -10.0890 H         1 UNK         0.0000
     70 H32         9.9690   -1.5370  -11.8410 H         1 UNK         0.0000
@<TRIPOS>BOND
     1    1   35 1
     2    2   17 1
     3    2   24 1
     4    3   22 1
     5    3   23 1
     6    4   20 1
     7    4   25 1
     8    5   33 1
     9    5   38 1
    10    6   34 1
    11    6   38 1
    12    7   12 1
    13    7   13 1
    14    7   16 1
    15    8   14 1
    16    8   15 1
    17    8   21 1
    18    9   30 1
    19    9   31 1
    20    9   65 1
    21   10   28 ar
    22   10   32 ar
    23   11   30 ar
    24   11   32 ar
    25   12   14 1
    26   12   39 1
    27   12   40 1
    28   13   15 1
    29   13   41 1
    30   13   42 1
    31   14   43 1
    32   14   44 1
    33   15   45 1
    34   15   46 1
    35   16   20 1
    36   16   47 1
    37   16   48 1
    38   17   18 1
    39   17   19 1
    40   17   49 1
    41   18   22 1
    42   18   50 1
    43   18   51 1
    44   19   23 1
    45   19   52 1
    46   19   53 1
    47   20   54 1
    48   20   55 1
    49   21   56 1
    50   21   57 1
    51   21   58 1
    52   22   59 1
    53   22   60 1
    54   23   61 1
    55   23   62 1
    56   24   26 ar
    57   24   27 ar
    58   25   27 ar
    59   25   29 ar
    60   26   28 ar
    61   26   30 ar
    62   27   63 1
    63   28   29 ar
    64   29   64 1
    65   31   33 ar
    66   31   35 ar
    67   32   66 1
    68   33   34 ar
    69   34   36 ar
    70   35   37 ar
    71   36   37 ar
    72   36   67 1
    73   37   68 1
    74   38   69 1
    75   38   70 1
