@<TRIPOS>MOLECULE
10302451
   70    75     0     0     0
SMALL
NO_CHARGES

@<TRIPOS>ATOM
      1 Cl1        11.3190   -4.9170   -9.9920 Cl        1 UNK         0.0000
      2 O1          7.7220   -4.3900  -10.0170 O.3       1 UNK         0.0000
      3 O2          5.0880   -4.6940   -6.8340 O.3       1 UNK         0.0000
      4 O3          5.9130   -6.6970  -13.7570 O.3       1 UNK         0.0000
      5 O4         10.2840    0.1920   -9.6340 O.3       1 UNK         0.0000
      6 O5         12.2940    0.7190   -8.7340 O.3       1 UNK         0.0000
      7 N1          3.6330   -8.2860  -11.3960 N.3       1 UNK         0.0000
      8 N2          2.9380   -8.7570   -8.6750 N.3       1 UNK         0.0000
      9 N3          9.4900   -2.6070  -10.3850 N.pl3     1 UNK         0.0000
     10 N4          9.2300   -3.3460  -14.4190 N.ar      1 UNK         0.0000
     11 N5         10.1300   -2.2070  -12.6160 N.ar      1 UNK         0.0000
     12 C1          4.1410   -7.4120  -10.3300 C.3       1 UNK         0.0000
     13 C2          3.4300   -9.6550  -10.8990 C.3       1 UNK         0.0000
     14 C3          3.1410   -7.3890   -9.1720 C.3       1 UNK         0.0000
     15 C4          2.4300   -9.6320   -9.7420 C.3       1 UNK         0.0000
     16 C5          4.5310   -8.2760  -12.5590 C.3       1 UNK         0.0000
     17 C6          6.5840   -4.8000   -9.2560 C.3       1 UNK         0.0000
     18 C7          7.0490   -5.5140   -7.9830 C.3       1 UNK         0.0000
     19 C8          5.7590   -3.5700   -8.8660 C.3       1 UNK         0.0000
     20 C9          4.6560   -6.8480  -13.0940 C.3       1 UNK         0.0000
     21 C10         2.0410   -8.7680   -7.5130 C.3       1 UNK         0.0000
     22 C11         5.8270   -5.8790   -7.1360 C.3       1 UNK         0.0000
     23 C12         4.5860   -4.0100   -7.9840 C.3       1 UNK         0.0000
     24 C13         7.6730   -4.5970  -11.3580 C.ar      1 UNK         0.0000
     25 C14         6.7630   -5.7610  -13.2610 C.ar      1 UNK         0.0000
     26 C15         8.4940   -3.8490  -12.2190 C.ar      1 UNK         0.0000
     27 C16         6.8180   -5.5410  -11.8840 C.ar      1 UNK         0.0000
     28 C17         8.4360   -4.0730  -13.6170 C.ar      1 UNK         0.0000
     29 C18         7.5630   -5.0410  -14.1250 C.ar      1 UNK         0.0000
     30 C19         9.3880   -2.8690  -11.7360 C.ar      1 UNK         0.0000
     31 C20        10.7310   -2.2740   -9.8280 C.ar      1 UNK         0.0000
     32 C21        10.0430   -2.4480  -13.9140 C.ar      1 UNK         0.0000
     33 C22        11.0220   -0.9500   -9.5130 C.ar      1 UNK         0.0000
     34 C23        12.2530   -0.6280   -8.9550 C.ar      1 UNK         0.0000
     35 C24        11.6760   -3.2660   -9.5930 C.ar      1 UNK         0.0000
     36 C25        13.1910   -1.6240   -8.7240 C.ar      1 UNK         0.0000
     37 C26        12.9010   -2.9370   -9.0420 C.ar      1 UNK         0.0000
     38 C27        10.9220    1.1570   -8.7780 C.3       1 UNK         0.0000
     39 H1          4.2700   -6.4010  -10.7190 H         1 UNK         0.0000
     40 H2          5.0990   -7.7900   -9.9750 H         1 UNK         0.0000
     41 H3          4.3810  -10.0590  -10.5510 H         1 UNK         0.0000
     42 H4          3.0420  -10.2790  -11.7030 H         1 UNK         0.0000
     43 H5          2.1900   -6.9840   -9.5210 H         1 UNK         0.0000
     44 H6          3.5290   -6.7640   -8.3680 H         1 UNK         0.0000
     45 H7          2.3000  -10.6420   -9.3530 H         1 UNK         0.0000
     46 H8          1.4710   -9.2530  -10.0970 H         1 UNK         0.0000
     47 H9          5.5150   -8.6390  -12.2600 H         1 UNK         0.0000
     48 H10         4.1260   -8.9220  -13.3360 H         1 UNK         0.0000
     49 H11         5.9710   -5.4780   -9.8510 H         1 UNK         0.0000
     50 H12         7.5910   -6.4210   -8.2510 H         1 UNK         0.0000
     51 H13         7.7030   -4.8540   -7.4130 H         1 UNK         0.0000
     52 H14         6.3870   -2.8710   -8.3140 H         1 UNK         0.0000
     53 H15         5.3770   -3.0880   -9.7650 H         1 UNK         0.0000
     54 H16         3.8480   -6.6530  -13.7980 H         1 UNK         0.0000
     55 H17         4.5940   -6.1430  -12.2660 H         1 UNK         0.0000
     56 H18         1.8420   -7.7440   -7.1980 H         1 UNK         0.0000
     57 H19         1.1020   -9.2530   -7.7840 H         1 UNK         0.0000
     58 H20         2.5100   -9.3170   -6.6960 H         1 UNK         0.0000
     59 H21         5.1940   -6.5720   -7.6910 H         1 UNK         0.0000
     60 H22         6.1540   -6.3490   -6.2090 H         1 UNK         0.0000
     61 H23         3.9380   -4.6780   -8.5510 H         1 UNK         0.0000
     62 H24         4.0200   -3.1340   -7.6690 H         1 UNK         0.0000
     63 H25         6.1860   -6.1170  -11.2240 H         1 UNK         0.0000
     64 H26         7.5140   -5.2230  -15.1880 H         1 UNK         0.0000
     65 H27         8.7020   -2.6550   -9.8210 H         1 UNK         0.0000
     66 H28        10.6670   -1.8800  -14.5880 H         1 UNK         0.0000
     67 H29        14.1490   -1.3720   -8.2950 H         1 UNK         0.0000
     68 H30        13.6340   -3.7090   -8.8610 H         1 UNK         0.0000
     69 H31        10.4820    1.1350   -7.7810 H         1 UNK         0.0000
     70 H32        10.8530    2.1570   -9.2050 H         1 UNK         0.0000
@<TRIPOS>BOND
     1    1   35 1
     2    2   17 1
     3    2   24 1
     4    3   22 1
     5    3   23 1
     6    4   20 1
     7    4   25 1
     8    5   33 1
     9    5   38 1
    10    6   34 1
    11    6   38 1
    12    7   12 1
    13    7   13 1
    14    7   16 1
    15    8   14 1
    16    8   15 1
    17    8   21 1
    18    9   30 1
    19    9   31 1
    20    9   65 1
    21   10   28 ar
    22   10   32 ar
    23   11   30 ar
    24   11   32 ar
    25   12   14 1
    26   12   39 1
    27   12   40 1
    28   13   15 1
    29   13   41 1
    30   13   42 1
    31   14   43 1
    32   14   44 1
    33   15   45 1
    34   15   46 1
    35   16   20 1
    36   16   47 1
    37   16   48 1
    38   17   18 1
    39   17   19 1
    40   17   49 1
    41   18   22 1
    42   18   50 1
    43   18   51 1
    44   19   23 1
    45   19   52 1
    46   19   53 1
    47   20   54 1
    48   20   55 1
    49   21   56 1
    50   21   57 1
    51   21   58 1
    52   22   59 1
    53   22   60 1
    54   23   61 1
    55   23   62 1
    56   24   26 ar
    57   24   27 ar
    58   25   27 ar
    59   25   29 ar
    60   26   28 ar
    61   26   30 ar
    62   27   63 1
    63   28   29 ar
    64   29   64 1
    65   31   33 ar
    66   31   35 ar
    67   32   66 1
    68   33   34 ar
    69   34   36 ar
    70   35   37 ar
    71   36   37 ar
    72   36   67 1
    73   37   68 1
    74   38   69 1
    75   38   70 1
