@<TRIPOS>MOLECULE
10302451
   70    75     0     0     0
SMALL
NO_CHARGES

@<TRIPOS>ATOM
      1 Cl1        10.1150   -7.2970  -14.9230 Cl        1 UNK         0.0000
      2 O1          9.2060   -4.9740  -10.3610 O.3       1 UNK         0.0000
      3 O2         12.7150   -6.5510   -8.8250 O.3       1 UNK         0.0000
      4 O3          5.7470   -5.8100   -7.2110 O.3       1 UNK         0.0000
      5 O4          8.0730   -2.7870  -13.2540 O.3       1 UNK         0.0000
      6 O5          8.3550   -1.7200  -15.2320 O.3       1 UNK         0.0000
      7 N1          6.2890   -4.1750   -4.0570 N.3       1 UNK         0.0000
      8 N2          6.2480   -2.5480   -1.7200 N.3       1 UNK         0.0000
      9 N3          8.8750   -5.6450  -12.7870 N.pl3     1 UNK         0.0000
     10 N4          5.1530   -7.0560  -11.7680 N.ar      1 UNK         0.0000
     11 N5          6.8200   -6.6630  -13.3240 N.ar      1 UNK         0.0000
     12 C1          7.1430   -4.4950   -2.9040 C.3       1 UNK         0.0000
     13 C2          5.0500   -3.5140   -3.6230 C.3       1 UNK         0.0000
     14 C3          7.4880   -3.2080   -2.1540 C.3       1 UNK         0.0000
     15 C4          5.3950   -2.2270   -2.8730 C.3       1 UNK         0.0000
     16 C5          5.9960   -5.3780   -4.8470 C.3       1 UNK         0.0000
     17 C6         10.2460   -5.2630   -9.4250 C.3       1 UNK         0.0000
     18 C7         10.3410   -6.7770   -9.2160 C.3       1 UNK         0.0000
     19 C8         11.5820   -4.7480   -9.9690 C.3       1 UNK         0.0000
     20 C9          6.6230   -5.2410   -6.2360 C.3       1 UNK         0.0000
     21 C10         6.5400   -1.3450   -0.9300 C.3       1 UNK         0.0000
     22 C11        11.5090   -7.0820   -8.2740 C.3       1 UNK         0.0000
     23 C12        12.7020   -5.1320   -8.9970 C.3       1 UNK         0.0000
     24 C13         7.9690   -5.4550  -10.0750 C.ar      1 UNK         0.0000
     25 C14         6.2090   -5.8830   -8.4870 C.ar      1 UNK         0.0000
     26 C15         7.1780   -6.0210  -11.0900 C.ar      1 UNK         0.0000
     27 C16         7.4790   -5.3910   -8.7890 C.ar      1 UNK         0.0000
     28 C17         5.8890   -6.5200  -10.7820 C.ar      1 UNK         0.0000
     29 C18         5.4170   -6.4480   -9.4660 C.ar      1 UNK         0.0000
     30 C19         7.6280   -6.1130  -12.4260 C.ar      1 UNK         0.0000
     31 C20         9.0470   -4.9790  -14.0070 C.ar      1 UNK         0.0000
     32 C21         5.6220   -7.1150  -12.9920 C.ar      1 UNK         0.0000
     33 C22         8.6430   -3.6540  -14.1410 C.ar      1 UNK         0.0000
     34 C23         8.8220   -2.9980  -15.3540 C.ar      1 UNK         0.0000
     35 C24         9.6170   -5.6430  -15.0870 C.ar      1 UNK         0.0000
     36 C25         9.3920   -3.6680  -16.4270 C.ar      1 UNK         0.0000
     37 C26         9.7870   -4.9850  -16.2910 C.ar      1 UNK         0.0000
     38 C27         8.2700   -1.4760  -13.8150 C.3       1 UNK         0.0000
     39 H1          8.0600   -4.9720   -3.2520 H         1 UNK         0.0000
     40 H2          6.6110   -5.1740   -2.2360 H         1 UNK         0.0000
     41 H3          4.4940   -4.1820   -2.9640 H         1 UNK         0.0000
     42 H4          4.4410   -3.2750   -4.4950 H         1 UNK         0.0000
     43 H5          8.0440   -2.5400   -2.8140 H         1 UNK         0.0000
     44 H6          8.0970   -3.4470   -1.2820 H         1 UNK         0.0000
     45 H7          4.4780   -1.7510   -2.5250 H         1 UNK         0.0000
     46 H8          5.9260   -1.5480   -3.5410 H         1 UNK         0.0000
     47 H9          6.4130   -6.2520   -4.3450 H         1 UNK         0.0000
     48 H10         4.9180   -5.4950   -4.9450 H         1 UNK         0.0000
     49 H11        10.0270   -4.7770   -8.4730 H         1 UNK         0.0000
     50 H12         9.4140   -7.1440   -8.7770 H         1 UNK         0.0000
     51 H13        10.5100   -7.2680  -10.1750 H         1 UNK         0.0000
     52 H14        11.7760   -5.1980  -10.9430 H         1 UNK         0.0000
     53 H15        11.5420   -3.6640  -10.0680 H         1 UNK         0.0000
     54 H16         6.7810   -4.1870   -6.4610 H         1 UNK         0.0000
     55 H17         7.5790   -5.7640   -6.2560 H         1 UNK         0.0000
     56 H18         7.6190   -1.2320   -0.8260 H         1 UNK         0.0000
     57 H19         6.1310   -0.4710   -1.4360 H         1 UNK         0.0000
     58 H20         6.0870   -1.4390    0.0570 H         1 UNK         0.0000
     59 H21        11.3210   -6.6260   -7.3010 H         1 UNK         0.0000
     60 H22        11.6090   -8.1610   -8.1550 H         1 UNK         0.0000
     61 H23        12.5290   -4.6500   -8.0360 H         1 UNK         0.0000
     62 H24        13.6610   -4.8060   -9.4010 H         1 UNK         0.0000
     63 H25         8.0840   -4.9560   -8.0070 H         1 UNK         0.0000
     64 H26         4.4380   -6.8290   -9.2190 H         1 UNK         0.0000
     65 H27         9.6330   -5.7790  -12.1960 H         1 UNK         0.0000
     66 H28         5.0040   -7.5530  -13.7620 H         1 UNK         0.0000
     67 H29         9.5260   -3.1600  -17.3690 H         1 UNK         0.0000
     68 H30        10.2310   -5.5030  -17.1290 H         1 UNK         0.0000
     69 H31         9.1970   -1.0370  -13.4460 H         1 UNK         0.0000
     70 H32         7.4240   -0.8280  -13.5880 H         1 UNK         0.0000
@<TRIPOS>BOND
     1    1   35 1
     2    2   17 1
     3    2   24 1
     4    3   22 1
     5    3   23 1
     6    4   20 1
     7    4   25 1
     8    5   33 1
     9    5   38 1
    10    6   34 1
    11    6   38 1
    12    7   12 1
    13    7   13 1
    14    7   16 1
    15    8   14 1
    16    8   15 1
    17    8   21 1
    18    9   30 1
    19    9   31 1
    20    9   65 1
    21   10   28 ar
    22   10   32 ar
    23   11   30 ar
    24   11   32 ar
    25   12   14 1
    26   12   39 1
    27   12   40 1
    28   13   15 1
    29   13   41 1
    30   13   42 1
    31   14   43 1
    32   14   44 1
    33   15   45 1
    34   15   46 1
    35   16   20 1
    36   16   47 1
    37   16   48 1
    38   17   18 1
    39   17   19 1
    40   17   49 1
    41   18   22 1
    42   18   50 1
    43   18   51 1
    44   19   23 1
    45   19   52 1
    46   19   53 1
    47   20   54 1
    48   20   55 1
    49   21   56 1
    50   21   57 1
    51   21   58 1
    52   22   59 1
    53   22   60 1
    54   23   61 1
    55   23   62 1
    56   24   26 ar
    57   24   27 ar
    58   25   27 ar
    59   25   29 ar
    60   26   28 ar
    61   26   30 ar
    62   27   63 1
    63   28   29 ar
    64   29   64 1
    65   31   33 ar
    66   31   35 ar
    67   32   66 1
    68   33   34 ar
    69   34   36 ar
    70   35   37 ar
    71   36   37 ar
    72   36   67 1
    73   37   68 1
    74   38   69 1
    75   38   70 1
