# created with PyMOL 2.4.1
@<TRIPOS>MOLECULE
10302451
70 75 1                 
SMALL
USER_CHARGES
@<TRIPOS>ATOM
1	  Cl	8.112	-7.032	-2.014	Cl	1	UNK0	0.000	
2	   O	4.586	-8.693	-3.673	O.3	1	UNK0	0.000	
3	   O	6.786	-11.853	-5.177	O.3	1	UNK0	0.000	
4	   O	-0.111	-8.805	-4.248	O.3	1	UNK0	0.000	
5	   O	6.352	-5.151	-6.494	O.3	1	UNK0	0.000	
6	   O	8.552	-4.550	-7.275	O.3	1	UNK0	0.000	
7	   N	-1.287	-11.973	-5.719	N.3	1	UNK0	0.000	
8	   N	-1.780	-14.101	-7.612	N.3	1	UNK0	0.000	
9	   N	5.830	-6.389	-3.935	N.pl3	1	UNK0	0.000	
10	   N	2.169	-4.635	-4.719	N.2	1	UNK0	0.000	
11	   N	4.559	-4.501	-4.440	N.2	1	UNK0	0.000	
12	   C	-0.481	-12.111	-6.938	C.3	1	UNK0	0.000	
13	   C	-2.639	-12.501	-5.936	C.3	1	UNK0	0.000	
14	   C	-0.428	-13.573	-7.395	C.3	1	UNK0	0.000	
15	   C	-2.587	-13.963	-6.394	C.3	1	UNK0	0.000	
16	   C	-1.337	-10.578	-5.284	C.3	1	UNK0	0.000	
17	   C	4.925	-9.749	-4.562	C.3	1	UNK0	0.000	
18	   C	6.282	-9.478	-5.206	C.3	1	UNK0	0.000	
19	   C	4.959	-11.063	-3.787	C.3	1	UNK0	0.000	
20	   C	-0.023	-10.169	-4.639	C.3	1	UNK0	0.000	
21	   C	-1.729	-15.496	-8.044	C.3	1	UNK0	0.000	
22	   C	6.750	-10.688	-6.002	C.3	1	UNK0	0.000	
23	   C	5.498	-12.188	-4.659	C.3	1	UNK0	0.000	
24	   C	3.443	-7.999	-3.945	C.2	1	UNK0	0.000	
25	   C	1.058	-8.091	-4.230	C.2	1	UNK0	0.000	
26	   C	3.416	-6.617	-4.200	C.2	1	UNK0	0.000	
27	   C	2.262	-8.733	-3.961	C.2	1	UNK0	0.000	
28	   C	2.207	-5.957	-4.473	C.2	1	UNK0	0.000	
29	   C	1.039	-6.716	-4.483	C.2	1	UNK0	0.000	
30	   C	4.561	-5.825	-4.199	C.2	1	UNK0	0.000	
31	   C	7.127	-6.052	-4.362	C.2	1	UNK0	0.000	
32	   C	3.347	-3.979	-4.689	C.2	1	UNK0	0.000	
33	   C	7.324	-5.461	-5.593	C.2	1	UNK0	0.000	
34	   C	8.580	-5.118	-6.039	C.2	1	UNK0	0.000	
35	   C	8.253	-6.296	-3.572	C.2	1	UNK0	0.000	
36	   C	9.708	-5.348	-5.278	C.2	1	UNK0	0.000	
37	   C	9.536	-5.946	-4.027	C.2	1	UNK0	0.000	
38	   C	7.138	-4.573	-7.557	C.3	1	UNK0	0.000	
39	   H	-0.886	-11.488	-7.748	 H	1	UNK0	0.000	
40	   H	0.553	-11.794	-6.772	 H	1	UNK0	0.000	
41	   H	-3.179	-11.898	-6.680	 H	1	UNK0	0.000	
42	   H	-3.211	-12.456	-5.002	 H	1	UNK0	0.000	
43	   H	0.143	-13.622	-8.330	 H	1	UNK0	0.000	
44	   H	0.112	-14.173	-6.650	 H	1	UNK0	0.000	
45	   H	-2.186	-14.588	-5.585	 H	1	UNK0	0.000	
46	   H	-3.613	-14.299	-6.588	 H	1	UNK0	0.000	
47	   H	-2.124	-10.441	-4.530	 H	1	UNK0	0.000	
48	   H	-1.598	-9.897	-6.106	 H	1	UNK0	0.000	
49	   H	4.191	-9.842	-5.376	 H	1	UNK0	0.000	
50	   H	6.230	-8.596	-5.853	 H	1	UNK0	0.000	
51	   H	7.013	-9.254	-4.419	 H	1	UNK0	0.000	
52	   H	5.606	-10.939	-2.908	 H	1	UNK0	0.000	
53	   H	3.967	-11.321	-3.402	 H	1	UNK0	0.000	
54	   H	0.170	-10.783	-3.751	 H	1	UNK0	0.000	
55	   H	0.793	-10.305	-5.355	 H	1	UNK0	0.000	
56	   H	-1.264	-16.147	-7.295	 H	1	UNK0	0.000	
57	   H	-2.737	-15.873	-8.249	 H	1	UNK0	0.000	
58	   H	-1.164	-15.589	-8.979	 H	1	UNK0	0.000	
59	   H	6.101	-10.873	-6.866	 H	1	UNK0	0.000	
60	   H	7.763	-10.516	-6.380	 H	1	UNK0	0.000	
61	   H	5.605	-13.101	-4.065	 H	1	UNK0	0.000	
62	   H	4.817	-12.411	-5.489	 H	1	UNK0	0.000	
63	   H	2.289	-9.789	-3.715	 H	1	UNK0	0.000	
64	   H	0.087	-6.231	-4.692	 H	1	UNK0	0.000	
65	   H	5.820	-7.049	-3.162	 H	1	UNK0	0.000	
66	   H	3.309	-2.915	-4.889	 H	1	UNK0	0.000	
67	   H	10.696	-5.076	-5.633	 H	1	UNK0	0.000	
68	   H	10.412	-6.136	-3.411	 H	1	UNK0	0.000	
69	   H	6.971	-5.154	-8.471	 H	1	UNK0	0.000	
70	   H	6.797	-3.545	-7.725	 H	1	UNK0	0.000	
@<TRIPOS>BOND
1 1 35 1
2 2 17 1
3 2 24 1
4 3 22 1
5 3 23 1
6 4 20 1
7 4 25 1
8 5 33 1
9 5 38 1
10 6 34 1
11 6 38 1
12 7 12 1
13 7 13 1
14 7 16 1
15 8 14 1
16 8 15 1
17 8 21 1
18 9 30 1
19 9 31 1
20 9 65 1
21 10 28 1
22 10 32 2
23 11 30 2
24 11 32 1
25 12 14 1
26 12 39 1
27 12 40 1
28 13 15 1
29 13 41 1
30 13 42 1
31 14 43 1
32 14 44 1
33 15 45 1
34 15 46 1
35 16 20 1
36 16 47 1
37 16 48 1
38 17 18 1
39 17 19 1
40 17 49 1
41 18 22 1
42 18 50 1
43 18 51 1
44 19 23 1
45 19 52 1
46 19 53 1
47 20 54 1
48 20 55 1
49 21 56 1
50 21 57 1
51 21 58 1
52 22 59 1
53 22 60 1
54 23 61 1
55 23 62 1
56 24 26 1
57 24 27 2
58 25 27 1
59 25 29 2
60 26 28 2
61 26 30 1
62 27 63 1
63 28 29 1
64 29 64 1
65 31 33 1
66 31 35 2
67 32 66 1
68 33 34 2
69 34 36 1
70 35 37 1
71 36 37 2
72 36 67 1
73 37 68 1
74 38 69 1
75 38 70 1
@<TRIPOS>SUBSTRUCTURE
1	UNK0	1	GROUP	1 ****	UNK
