@<TRIPOS>MOLECULE
25174101
   55    58     0     0     0
SMALL
NO_CHARGES

@<TRIPOS>ATOM
      1 O1          7.5870   -5.3860   -9.5240 O.2       1 UNK         0.0000
      2 N1          4.7250   -6.4380   -8.0580 N.pl3     1 UNK         0.0000
      3 N2          4.6440   -6.6560   -6.6770 N.2       1 UNK         0.0000
      4 N3          5.5110   -4.5970   -9.4850 N.am      1 UNK         0.0000
      5 N4          6.9610   -4.1490  -11.2590 N.am      1 UNK         0.0000
      6 N5          5.8290   -9.3900  -11.7160 N.pl3     1 UNK         0.0000
      7 C1          5.2040   -5.4150   -4.5710 C.3       1 UNK         0.0000
      8 C2          5.1090   -5.5970   -6.0640 C.2       1 UNK         0.0000
      9 C3          4.8040   -3.9850   -4.2060 C.3       1 UNK         0.0000
     10 C4          4.2640   -6.4010   -3.8760 C.3       1 UNK         0.0000
     11 C5          6.6420   -5.6750   -4.1160 C.3       1 UNK         0.0000
     12 C6          5.5110   -4.6680   -7.0280 C.2       1 UNK         0.0000
     13 C7          5.2600   -5.2030   -8.2540 C.2       1 UNK         0.0000
     14 C8          4.3270   -7.3340   -9.0600 C.ar      1 UNK         0.0000
     15 C9          5.2750   -7.9120   -9.8920 C.ar      1 UNK         0.0000
     16 C10         2.9820   -7.6400   -9.2250 C.ar      1 UNK         0.0000
     17 C11         6.7180   -4.7340  -10.0700 C.2       1 UNK         0.0000
     18 C12         8.1670   -4.3860  -11.9210 C.ar      1 UNK         0.0000
     19 C13         8.2560   -5.3950  -12.9030 C.ar      1 UNK         0.0000
     20 C14         4.8770   -8.8020  -10.8790 C.ar      1 UNK         0.0000
     21 C15         9.4900   -5.6170  -13.5610 C.ar      1 UNK         0.0000
     22 C16         2.5880   -8.5220  -10.2120 C.ar      1 UNK         0.0000
     23 C17         3.5290   -9.1040  -11.0390 C.ar      1 UNK         0.0000
     24 C18         9.2830   -3.6360  -11.6190 C.ar      1 UNK         0.0000
     25 C19         7.1440   -6.1810  -13.2410 C.ar      1 UNK         0.0000
     26 C20        10.6050   -4.8300  -13.2240 C.ar      1 UNK         0.0000
     27 C21        10.4920   -3.8640  -12.2720 C.ar      1 UNK         0.0000
     28 C22         9.5770   -6.6220  -14.5400 C.ar      1 UNK         0.0000
     29 C23         7.2640   -7.1460  -14.1940 C.ar      1 UNK         0.0000
     30 C24         8.4780   -7.3660  -14.8410 C.ar      1 UNK         0.0000
     31 H1          5.6940   -3.3550   -4.1760 H         1 UNK         0.0000
     32 H2          4.1110   -3.5980   -4.9550 H         1 UNK         0.0000
     33 H3          4.3220   -3.9790   -3.2290 H         1 UNK         0.0000
     34 H4          4.8330   -7.0120   -3.1730 H         1 UNK         0.0000
     35 H5          3.4920   -5.8510   -3.3380 H         1 UNK         0.0000
     36 H6          3.7980   -7.0460   -4.6210 H         1 UNK         0.0000
     37 H7          7.2590   -5.9160   -4.9820 H         1 UNK         0.0000
     38 H8          7.0350   -4.7830   -3.6280 H         1 UNK         0.0000
     39 H9          6.6570   -6.5090   -3.4160 H         1 UNK         0.0000
     40 H10         5.9410   -3.6960   -6.8330 H         1 UNK         0.0000
     41 H11         4.8180   -4.0770   -9.9210 H         1 UNK         0.0000
     42 H12         6.3210   -7.6730   -9.7680 H         1 UNK         0.0000
     43 H13         2.2430   -7.1860   -8.5800 H         1 UNK         0.0000
     44 H14         6.2970   -3.5630  -11.6560 H         1 UNK         0.0000
     45 H15         1.5420   -8.7580  -10.3390 H         1 UNK         0.0000
     46 H16         3.2190   -9.7930  -11.8100 H         1 UNK         0.0000
     47 H17         9.2200   -2.8630  -10.8680 H         1 UNK         0.0000
     48 H18         6.1960   -6.0220  -12.7470 H         1 UNK         0.0000
     49 H19        11.5520   -4.9950  -13.7170 H         1 UNK         0.0000
     50 H20        11.3540   -3.2640  -12.0190 H         1 UNK         0.0000
     51 H21        10.5120   -6.8030  -15.0500 H         1 UNK         0.0000
     52 H22         6.4060   -7.7490  -14.4520 H         1 UNK         0.0000
     53 H23         8.5480   -8.1380  -15.5940 H         1 UNK         0.0000
     54 H24         5.6180   -9.5560  -12.6480 H         1 UNK         0.0000
     55 H25         6.7010   -9.6300  -11.3650 H         1 UNK         0.0000
@<TRIPOS>BOND
     1    1   17 2
     2    2    3 1
     3    2   13 1
     4    2   14 1
     5    3    8 2
     6    4   13 1
     7    4   17 am
     8    4   41 1
     9    5   17 am
    10    5   18 1
    11    5   44 1
    12    6   20 1
    13    6   54 1
    14    6   55 1
    15    7    8 1
    16    7    9 1
    17    7   10 1
    18    7   11 1
    19    8   12 1
    20    9   31 1
    21    9   32 1
    22    9   33 1
    23   10   34 1
    24   10   35 1
    25   10   36 1
    26   11   37 1
    27   11   38 1
    28   11   39 1
    29   12   13 2
    30   12   40 1
    31   14   15 ar
    32   14   16 ar
    33   15   20 ar
    34   15   42 1
    35   16   22 ar
    36   16   43 1
    37   18   19 ar
    38   18   24 ar
    39   19   21 ar
    40   19   25 ar
    41   20   23 ar
    42   21   26 ar
    43   21   28 ar
    44   22   23 ar
    45   22   45 1
    46   23   46 1
    47   24   27 ar
    48   24   47 1
    49   25   29 ar
    50   25   48 1
    51   26   27 ar
    52   26   49 1
    53   27   50 1
    54   28   30 ar
    55   28   51 1
    56   29   30 ar
    57   29   52 1
    58   30   53 1
