@<TRIPOS>MOLECULE
25174101
   55    58     0     0     0
SMALL
NO_CHARGES

@<TRIPOS>ATOM
      1 O1          7.3790   -6.0450   -9.3250 O.2       1 UNK         0.0000
      2 N1          9.0700   -5.1040  -11.9060 N.pl3     1 UNK         0.0000
      3 N2         10.4620   -4.9700  -11.9910 N.2       1 UNK         0.0000
      4 N3          7.3160   -4.1460  -10.4750 N.am      1 UNK         0.0000
      5 N4          5.4670   -4.9170   -9.2760 N.am      1 UNK         0.0000
      6 N5          7.5990   -9.4870  -13.2960 N.pl3     1 UNK         0.0000
      7 C1         12.2740   -3.6990  -10.8140 C.3       1 UNK         0.0000
      8 C2         10.8530   -4.1270  -11.0680 C.2       1 UNK         0.0000
      9 C3         13.0140   -3.5730  -12.1480 C.3       1 UNK         0.0000
     10 C4         12.2810   -2.3480  -10.0970 C.3       1 UNK         0.0000
     11 C5         12.9730   -4.7430   -9.9400 C.3       1 UNK         0.0000
     12 C6          9.7280   -3.6870  -10.3660 C.2       1 UNK         0.0000
     13 C7          8.6370   -4.3060  -10.8930 C.2       1 UNK         0.0000
     14 C8          8.2680   -5.9150  -12.7200 C.ar      1 UNK         0.0000
     15 C9          8.3360   -7.2970  -12.6070 C.ar      1 UNK         0.0000
     16 C10         7.4070   -5.3370  -13.6450 C.ar      1 UNK         0.0000
     17 C11         6.7430   -5.0710   -9.6790 C.2       1 UNK         0.0000
     18 C12         4.9110   -5.8110   -8.3590 C.ar      1 UNK         0.0000
     19 C13         4.9310   -5.5210   -6.9790 C.ar      1 UNK         0.0000
     20 C14         7.5370   -8.0960  -13.4110 C.ar      1 UNK         0.0000
     21 C15         4.3620   -6.4440   -6.0670 C.ar      1 UNK         0.0000
     22 C16         6.6160   -6.1360  -14.4480 C.ar      1 UNK         0.0000
     23 C17         6.6770   -7.5110  -14.3340 C.ar      1 UNK         0.0000
     24 C18         4.3370   -6.9850   -8.7960 C.ar      1 UNK         0.0000
     25 C19         5.5060   -4.3370   -6.4920 C.ar      1 UNK         0.0000
     26 C20         3.7860   -7.6310   -6.5530 C.ar      1 UNK         0.0000
     27 C21         3.7800   -7.8840   -7.8900 C.ar      1 UNK         0.0000
     28 C22         4.3820   -6.1540   -4.6920 C.ar      1 UNK         0.0000
     29 C23         5.5080   -4.0880   -5.1530 C.ar      1 UNK         0.0000
     30 C24         4.9480   -4.9950   -4.2560 C.ar      1 UNK         0.0000
     31 H1         13.9000   -4.2090  -12.1330 H         1 UNK         0.0000
     32 H2         12.3570   -3.8850  -12.9600 H         1 UNK         0.0000
     33 H3         13.3140   -2.5370  -12.3020 H         1 UNK         0.0000
     34 H4         11.8380   -2.4600   -9.1070 H         1 UNK         0.0000
     35 H5         13.3060   -1.9930   -9.9990 H         1 UNK         0.0000
     36 H6         11.7010   -1.6280  -10.6750 H         1 UNK         0.0000
     37 H7         13.5940   -4.2400   -9.1980 H         1 UNK         0.0000
     38 H8         12.2240   -5.3520   -9.4330 H         1 UNK         0.0000
     39 H9         13.5980   -5.3800  -10.5640 H         1 UNK         0.0000
     40 H10         9.7260   -2.9830   -9.5470 H         1 UNK         0.0000
     41 H11         6.8080   -3.3690  -10.7580 H         1 UNK         0.0000
     42 H12         9.0080   -7.7470  -11.8910 H         1 UNK         0.0000
     43 H13         7.3570   -4.2630  -13.7360 H         1 UNK         0.0000
     44 H14         4.9340   -4.1840   -9.6230 H         1 UNK         0.0000
     45 H15         5.9470   -5.6850  -15.1660 H         1 UNK         0.0000
     46 H16         6.0570   -8.1330  -14.9630 H         1 UNK         0.0000
     47 H17         4.3190   -7.2110   -9.8520 H         1 UNK         0.0000
     48 H18         5.9430   -3.6250   -7.1770 H         1 UNK         0.0000
     49 H19         3.3530   -8.3420   -5.8650 H         1 UNK         0.0000
     50 H20         3.3370   -8.7990   -8.2550 H         1 UNK         0.0000
     51 H21         3.9510   -6.8470   -3.9840 H         1 UNK         0.0000
     52 H22         5.9500   -3.1760   -4.7820 H         1 UNK         0.0000
     53 H23         4.9630   -4.7750   -3.1980 H         1 UNK         0.0000
     54 H24         6.8810  -10.0350  -13.6490 H         1 UNK         0.0000
     55 H25         8.3620   -9.9040  -12.8650 H         1 UNK         0.0000
@<TRIPOS>BOND
     1    1   17 2
     2    2    3 1
     3    2   13 1
     4    2   14 1
     5    3    8 2
     6    4   13 1
     7    4   17 am
     8    4   41 1
     9    5   17 am
    10    5   18 1
    11    5   44 1
    12    6   20 1
    13    6   54 1
    14    6   55 1
    15    7    8 1
    16    7    9 1
    17    7   10 1
    18    7   11 1
    19    8   12 1
    20    9   31 1
    21    9   32 1
    22    9   33 1
    23   10   34 1
    24   10   35 1
    25   10   36 1
    26   11   37 1
    27   11   38 1
    28   11   39 1
    29   12   13 2
    30   12   40 1
    31   14   15 ar
    32   14   16 ar
    33   15   20 ar
    34   15   42 1
    35   16   22 ar
    36   16   43 1
    37   18   19 ar
    38   18   24 ar
    39   19   21 ar
    40   19   25 ar
    41   20   23 ar
    42   21   26 ar
    43   21   28 ar
    44   22   23 ar
    45   22   45 1
    46   23   46 1
    47   24   27 ar
    48   24   47 1
    49   25   29 ar
    50   25   48 1
    51   26   27 ar
    52   26   49 1
    53   27   50 1
    54   28   30 ar
    55   28   51 1
    56   29   30 ar
    57   29   52 1
    58   30   53 1
