@<TRIPOS>MOLECULE
25174101
   55    58     0     0     0
SMALL
NO_CHARGES

@<TRIPOS>ATOM
      1 O1          9.5760   -3.5740   -9.9720 O.2       1 UNK         0.0000
      2 N1          7.4580   -6.1430   -9.7610 N.pl3     1 UNK         0.0000
      3 N2          6.2580   -6.0880   -9.0410 N.2       1 UNK         0.0000
      4 N3          9.8140   -5.6620   -9.2540 N.am      1 UNK         0.0000
      5 N4         11.6180   -4.4400  -10.0920 N.am      1 UNK         0.0000
      6 N5          7.7050   -5.0150  -14.4490 N.pl3     1 UNK         0.0000
      7 C1          5.5160   -5.4810   -6.7240 C.3       1 UNK         0.0000
      8 C2          6.5240   -5.6780   -7.8260 C.2       1 UNK         0.0000
      9 C3          4.4760   -6.6010   -6.7790 C.3       1 UNK         0.0000
     10 C4          6.2270   -5.5090   -5.3710 C.3       1 UNK         0.0000
     11 C5          4.8200   -4.1300   -6.9060 C.3       1 UNK         0.0000
     12 C6          7.9010   -5.4640   -7.7230 C.2       1 UNK         0.0000
     13 C7          8.4600   -5.7500   -8.9300 C.2       1 UNK         0.0000
     14 C8          7.6000   -6.5340  -11.1000 C.ar      1 UNK         0.0000
     15 C9          7.5770   -5.5820  -12.1080 C.ar      1 UNK         0.0000
     16 C10         7.7580   -7.8770  -11.4190 C.ar      1 UNK         0.0000
     17 C11        10.3100   -4.5240   -9.7800 C.2       1 UNK         0.0000
     18 C12        12.1560   -3.2270  -10.5260 C.ar      1 UNK         0.0000
     19 C13        12.3230   -2.9740  -11.9040 C.ar      1 UNK         0.0000
     20 C14         7.7230   -5.9720  -13.4310 C.ar      1 UNK         0.0000
     21 C15        12.8710   -1.7360  -12.3210 C.ar      1 UNK         0.0000
     22 C16         7.8980   -8.2640  -12.7380 C.ar      1 UNK         0.0000
     23 C17         7.8810   -7.3180  -13.7440 C.ar      1 UNK         0.0000
     24 C18        12.5290   -2.2660   -9.6110 C.ar      1 UNK         0.0000
     25 C19        11.9560   -3.9240  -12.8690 C.ar      1 UNK         0.0000
     26 C20        13.2400   -0.7820  -11.3560 C.ar      1 UNK         0.0000
     27 C21        13.0680   -1.0530  -10.0330 C.ar      1 UNK         0.0000
     28 C22        13.0370   -1.4840  -13.6930 C.ar      1 UNK         0.0000
     29 C23        12.1300   -3.6470  -14.1900 C.ar      1 UNK         0.0000
     30 C24        12.6700   -2.4300  -14.6010 C.ar      1 UNK         0.0000
     31 H1          4.8530   -7.4170   -7.3950 H         1 UNK         0.0000
     32 H2          4.2820   -6.9680   -5.7700 H         1 UNK         0.0000
     33 H3          3.5510   -6.2190   -7.2090 H         1 UNK         0.0000
     34 H4          6.9270   -6.3450   -5.3450 H         1 UNK         0.0000
     35 H5          6.7690   -4.5750   -5.2240 H         1 UNK         0.0000
     36 H6          5.4900   -5.6290   -4.5760 H         1 UNK         0.0000
     37 H7          4.6580   -3.9440   -7.9680 H         1 UNK         0.0000
     38 H8          3.8590   -4.1430   -6.3910 H         1 UNK         0.0000
     39 H9          5.4450   -3.3400   -6.4910 H         1 UNK         0.0000
     40 H10         8.4270   -5.1270   -6.8420 H         1 UNK         0.0000
     41 H11        10.4000   -6.4210   -9.1000 H         1 UNK         0.0000
     42 H12         7.4500   -4.5380  -11.8620 H         1 UNK         0.0000
     43 H13         7.7710   -8.6190  -10.6350 H         1 UNK         0.0000
     44 H14        12.1860   -5.2220  -10.0150 H         1 UNK         0.0000
     45 H15         8.0200   -9.3080  -12.9840 H         1 UNK         0.0000
     46 H16         7.9900   -7.6230  -14.7740 H         1 UNK         0.0000
     47 H17        12.4030   -2.4560   -8.5560 H         1 UNK         0.0000
     48 H18        11.5360   -4.8720  -12.5640 H         1 UNK         0.0000
     49 H19        13.6620    0.1630  -11.6640 H         1 UNK         0.0000
     50 H20        13.3540   -0.3150   -9.2980 H         1 UNK         0.0000
     51 H21        13.4530   -0.5450  -14.0270 H         1 UNK         0.0000
     52 H22        11.8460   -4.3800  -14.9300 H         1 UNK         0.0000
     53 H23        12.7990   -2.2340  -15.6560 H         1 UNK         0.0000
     54 H24         7.7380   -5.2940  -15.3770 H         1 UNK         0.0000
     55 H25         7.6590   -4.0720  -14.2270 H         1 UNK         0.0000
@<TRIPOS>BOND
     1    1   17 2
     2    2    3 1
     3    2   13 1
     4    2   14 1
     5    3    8 2
     6    4   13 1
     7    4   17 am
     8    4   41 1
     9    5   17 am
    10    5   18 1
    11    5   44 1
    12    6   20 1
    13    6   54 1
    14    6   55 1
    15    7    8 1
    16    7    9 1
    17    7   10 1
    18    7   11 1
    19    8   12 1
    20    9   31 1
    21    9   32 1
    22    9   33 1
    23   10   34 1
    24   10   35 1
    25   10   36 1
    26   11   37 1
    27   11   38 1
    28   11   39 1
    29   12   13 2
    30   12   40 1
    31   14   15 ar
    32   14   16 ar
    33   15   20 ar
    34   15   42 1
    35   16   22 ar
    36   16   43 1
    37   18   19 ar
    38   18   24 ar
    39   19   21 ar
    40   19   25 ar
    41   20   23 ar
    42   21   26 ar
    43   21   28 ar
    44   22   23 ar
    45   22   45 1
    46   23   46 1
    47   24   27 ar
    48   24   47 1
    49   25   29 ar
    50   25   48 1
    51   26   27 ar
    52   26   49 1
    53   27   50 1
    54   28   30 ar
    55   28   51 1
    56   29   30 ar
    57   29   52 1
    58   30   53 1
