@<TRIPOS>MOLECULE
25174101
   55    58     0     0     0
SMALL
NO_CHARGES

@<TRIPOS>ATOM
      1 O1          9.4110   -3.8800  -10.7730 O.2       1 UNK         0.0000
      2 N1          7.2390   -6.2050  -10.0560 N.pl3     1 UNK         0.0000
      3 N2          6.1390   -6.0540   -9.2030 N.2       1 UNK         0.0000
      4 N3          9.6650   -5.8790   -9.8380 N.am      1 UNK         0.0000
      5 N4         11.3970   -4.8450  -11.0140 N.am      1 UNK         0.0000
      6 N5          7.6940   -9.7000  -13.3560 N.pl3     1 UNK         0.0000
      7 C1          5.7160   -5.3560   -6.8320 C.3       1 UNK         0.0000
      8 C2          6.5720   -5.6420   -8.0380 C.2       1 UNK         0.0000
      9 C3          6.6020   -5.2720   -5.5870 C.3       1 UNK         0.0000
     10 C4          4.9840   -4.0280   -7.0280 C.3       1 UNK         0.0000
     11 C5          4.6930   -6.4800   -6.6540 C.3       1 UNK         0.0000
     12 C6          7.9630   -5.5210   -8.1010 C.2       1 UNK         0.0000
     13 C7          8.3560   -5.8670   -9.3570 C.2       1 UNK         0.0000
     14 C8          7.1960   -6.6290  -11.3910 C.ar      1 UNK         0.0000
     15 C9          7.4710   -7.9510  -11.7090 C.ar      1 UNK         0.0000
     16 C10         6.8850   -5.7240  -12.3980 C.ar      1 UNK         0.0000
     17 C11        10.1320   -4.8340  -10.5500 C.2       1 UNK         0.0000
     18 C12        11.9180   -3.7170  -11.6500 C.ar      1 UNK         0.0000
     19 C13        12.3530   -2.6090  -10.8920 C.ar      1 UNK         0.0000
     20 C14         7.4230   -8.3680  -13.0320 C.ar      1 UNK         0.0000
     21 C15        12.8780   -1.4750  -11.5590 C.ar      1 UNK         0.0000
     22 C16         6.8430   -6.1410  -13.7150 C.ar      1 UNK         0.0000
     23 C17         7.1100   -7.4570  -14.0350 C.ar      1 UNK         0.0000
     24 C18        12.0120   -3.6750  -13.0240 C.ar      1 UNK         0.0000
     25 C19        12.2750   -2.6100   -9.4910 C.ar      1 UNK         0.0000
     26 C20        12.9560   -1.4720  -12.9620 C.ar      1 UNK         0.0000
     27 C21        12.5290   -2.5550  -13.6680 C.ar      1 UNK         0.0000
     28 C22        13.3110   -0.3720  -10.8030 C.ar      1 UNK         0.0000
     29 C23        12.7040   -1.5240   -8.7900 C.ar      1 UNK         0.0000
     30 C24        13.2200   -0.4070   -9.4450 C.ar      1 UNK         0.0000
     31 H1          7.5720   -5.7210   -5.8010 H         1 UNK         0.0000
     32 H2          6.7390   -4.2260   -5.3090 H         1 UNK         0.0000
     33 H3          6.1270   -5.8060   -4.7650 H         1 UNK         0.0000
     34 H4          4.0450   -4.2040   -7.5550 H         1 UNK         0.0000
     35 H5          4.7770   -3.5790   -6.0570 H         1 UNK         0.0000
     36 H6          5.6070   -3.3530   -7.6150 H         1 UNK         0.0000
     37 H7          3.6910   -6.0550   -6.6020 H         1 UNK         0.0000
     38 H8          4.7530   -7.1640   -7.5020 H         1 UNK         0.0000
     39 H9          4.9050   -7.0230   -5.7340 H         1 UNK         0.0000
     40 H10         8.6100   -5.2060   -7.2960 H         1 UNK         0.0000
     41 H11        10.2410   -6.6400   -9.6590 H         1 UNK         0.0000
     42 H12         7.7170   -8.6550  -10.9280 H         1 UNK         0.0000
     43 H13         6.6760   -4.6940  -12.1510 H         1 UNK         0.0000
     44 H14        11.9450   -5.6380  -10.9070 H         1 UNK         0.0000
     45 H15         6.6000   -5.4360  -14.4960 H         1 UNK         0.0000
     46 H16         7.0770   -7.7800  -15.0650 H         1 UNK         0.0000
     47 H17        11.6800   -4.5210  -13.6080 H         1 UNK         0.0000
     48 H18        11.8770   -3.4690   -8.9700 H         1 UNK         0.0000
     49 H19        13.3520   -0.6100  -13.4790 H         1 UNK         0.0000
     50 H20        12.5930   -2.5440  -14.7460 H         1 UNK         0.0000
     51 H21        13.7140    0.5000  -11.2970 H         1 UNK         0.0000
     52 H22        12.6440   -1.5270   -7.7130 H         1 UNK         0.0000
     53 H23        13.5540    0.4420   -8.8670 H         1 UNK         0.0000
     54 H24         7.3240  -10.0860  -14.1650 H         1 UNK         0.0000
     55 H25         8.2530  -10.2360  -12.7720 H         1 UNK         0.0000
@<TRIPOS>BOND
     1    1   17 2
     2    2    3 1
     3    2   13 1
     4    2   14 1
     5    3    8 2
     6    4   13 1
     7    4   17 am
     8    4   41 1
     9    5   17 am
    10    5   18 1
    11    5   44 1
    12    6   20 1
    13    6   54 1
    14    6   55 1
    15    7    8 1
    16    7    9 1
    17    7   10 1
    18    7   11 1
    19    8   12 1
    20    9   31 1
    21    9   32 1
    22    9   33 1
    23   10   34 1
    24   10   35 1
    25   10   36 1
    26   11   37 1
    27   11   38 1
    28   11   39 1
    29   12   13 2
    30   12   40 1
    31   14   15 ar
    32   14   16 ar
    33   15   20 ar
    34   15   42 1
    35   16   22 ar
    36   16   43 1
    37   18   19 ar
    38   18   24 ar
    39   19   21 ar
    40   19   25 ar
    41   20   23 ar
    42   21   26 ar
    43   21   28 ar
    44   22   23 ar
    45   22   45 1
    46   23   46 1
    47   24   27 ar
    48   24   47 1
    49   25   29 ar
    50   25   48 1
    51   26   27 ar
    52   26   49 1
    53   27   50 1
    54   28   30 ar
    55   28   51 1
    56   29   30 ar
    57   29   52 1
    58   30   53 1
