@<TRIPOS>MOLECULE
5328940
   65    68     0     0     0
SMALL
NO_CHARGES

@<TRIPOS>ATOM
      1 Cl1         3.5470  -22.7710   -1.4810 Cl        1 UNK         0.0000
      2 Cl2         2.6090  -27.7910   -3.2420 Cl        1 UNK         0.0000
      3 O1         10.6690  -23.1070   -3.6520 O.3       1 UNK         0.0000
      4 O2          7.9850  -22.7210   -4.0940 O.3       1 UNK         0.0000
      5 O3          4.7960  -28.5040   -1.3910 O.3       1 UNK         0.0000
      6 N1         10.4270  -26.6480   -3.3170 N.3       1 UNK         0.0000
      7 N2          9.0520  -28.1910   -1.3580 N.3       1 UNK         0.0000
      8 N3          5.6520  -24.0580    0.1780 N.pl3     1 UNK         0.0000
      9 N4          9.7350  -24.6040    0.7560 N.ar      1 UNK         0.0000
     10 N5          5.9290  -25.2790    3.5180 N.1       1 UNK         0.0000
     11 C1         11.1650  -27.5360   -2.4070 C.3       1 UNK         0.0000
     12 C2          9.0820  -27.1760   -3.5860 C.3       1 UNK         0.0000
     13 C3         10.3980  -27.6640   -1.0900 C.3       1 UNK         0.0000
     14 C4          8.3150  -27.3050   -2.2680 C.3       1 UNK         0.0000
     15 C5         11.1700  -26.4400   -4.5670 C.3       1 UNK         0.0000
     16 C6         11.7930  -25.0420   -4.5640 C.3       1 UNK         0.0000
     17 C7          8.3100  -28.4010   -0.1090 C.3       1 UNK         0.0000
     18 C8         10.6980  -23.9950   -4.7710 C.3       1 UNK         0.0000
     19 C9          9.7780  -23.3860   -2.6650 C.ar      1 UNK         0.0000
     20 C10         8.4080  -23.1890   -2.8900 C.ar      1 UNK         0.0000
     21 C11         7.9310  -23.9460   -0.6690 C.ar      1 UNK         0.0000
     22 C12        10.2300  -23.8590   -1.4540 C.ar      1 UNK         0.0000
     23 C13         9.3120  -24.1480   -0.4320 C.ar      1 UNK         0.0000
     24 C14         7.4960  -23.4630   -1.9120 C.ar      1 UNK         0.0000
     25 C15         7.0090  -24.2390    0.3620 C.ar      1 UNK         0.0000
     26 C16         7.5170  -24.7180    1.5790 C.ar      1 UNK         0.0000
     27 C17         8.9030  -24.8880    1.7260 C.ar      1 UNK         0.0000
     28 C18         4.9330  -24.9440   -0.6310 C.ar      1 UNK         0.0000
     29 C19         5.2260  -26.3000   -0.6080 C.ar      1 UNK         0.0000
     30 C20         7.0660  -23.5400   -4.8220 C.3       1 UNK         0.0000
     31 C21         3.9200  -24.4670   -1.4550 C.ar      1 UNK         0.0000
     32 C22         4.5110  -27.1750   -1.4110 C.ar      1 UNK         0.0000
     33 C23         6.6310  -25.0310    2.6600 C.1       1 UNK         0.0000
     34 C24         3.2130  -25.3420   -2.2590 C.ar      1 UNK         0.0000
     35 C25         3.5050  -26.6940   -2.2360 C.ar      1 UNK         0.0000
     36 C26         4.2750  -29.2630   -0.2970 C.3       1 UNK         0.0000
     37 H1         11.2710  -28.5200   -2.8650 H         1 UNK         0.0000
     38 H2         12.1530  -27.1170   -2.2140 H         1 UNK         0.0000
     39 H3          8.5510  -26.4950   -4.2520 H         1 UNK         0.0000
     40 H4          9.1630  -28.1550   -4.0560 H         1 UNK         0.0000
     41 H5         10.3170  -26.6840   -0.6190 H         1 UNK         0.0000
     42 H6         10.9290  -28.3440   -0.4240 H         1 UNK         0.0000
     43 H7          8.2100  -26.3210   -1.8110 H         1 UNK         0.0000
     44 H8          7.3270  -27.7220   -2.4620 H         1 UNK         0.0000
     45 H9         10.4910  -26.5320   -5.4130 H         1 UNK         0.0000
     46 H10        11.9590  -27.1870   -4.6500 H         1 UNK         0.0000
     47 H11        12.5230  -24.9680   -5.3690 H         1 UNK         0.0000
     48 H12        12.2880  -24.8660   -3.6080 H         1 UNK         0.0000
     49 H13         8.8420  -29.1190    0.5140 H         1 UNK         0.0000
     50 H14         8.2200  -27.4540    0.4230 H         1 UNK         0.0000
     51 H15         7.3150  -28.7850   -0.3390 H         1 UNK         0.0000
     52 H16         9.7330  -24.4920   -4.8660 H         1 UNK         0.0000
     53 H17        10.9050  -23.4270   -5.6790 H         1 UNK         0.0000
     54 H18        11.2870  -24.0070   -1.2910 H         1 UNK         0.0000
     55 H19         6.4430  -23.3090   -2.0940 H         1 UNK         0.0000
     56 H20         5.1980  -23.3180    0.6090 H         1 UNK         0.0000
     57 H21         9.2930  -25.2560    2.6620 H         1 UNK         0.0000
     58 H22         6.0100  -26.6730    0.0350 H         1 UNK         0.0000
     59 H23         7.1180  -24.5630   -4.4500 H         1 UNK         0.0000
     60 H24         6.0540  -23.1560   -4.6890 H         1 UNK         0.0000
     61 H25         7.3250  -23.5240   -5.8800 H         1 UNK         0.0000
     62 H26         2.4280  -24.9690   -2.9010 H         1 UNK         0.0000
     63 H27         4.7020  -30.2660   -0.3150 H         1 UNK         0.0000
     64 H28         4.5340  -28.7730    0.6410 H         1 UNK         0.0000
     65 H29         3.1900  -29.3290   -0.3860 H         1 UNK         0.0000
@<TRIPOS>BOND
     1    1   31 1
     2    2   35 1
     3    3   18 1
     4    3   19 1
     5    4   20 1
     6    4   30 1
     7    5   32 1
     8    5   36 1
     9    6   11 1
    10    6   12 1
    11    6   15 1
    12    7   13 1
    13    7   14 1
    14    7   17 1
    15    8   25 1
    16    8   28 1
    17    8   56 1
    18    9   23 ar
    19    9   27 ar
    20   10   33 3
    21   11   13 1
    22   11   37 1
    23   11   38 1
    24   12   14 1
    25   12   39 1
    26   12   40 1
    27   13   41 1
    28   13   42 1
    29   14   43 1
    30   14   44 1
    31   15   16 1
    32   15   45 1
    33   15   46 1
    34   16   18 1
    35   16   47 1
    36   16   48 1
    37   17   49 1
    38   17   50 1
    39   17   51 1
    40   18   52 1
    41   18   53 1
    42   19   20 ar
    43   19   22 ar
    44   20   24 ar
    45   21   23 ar
    46   21   24 ar
    47   21   25 ar
    48   22   23 ar
    49   22   54 1
    50   24   55 1
    51   25   26 ar
    52   26   27 ar
    53   26   33 1
    54   27   57 1
    55   28   29 ar
    56   28   31 ar
    57   29   32 ar
    58   29   58 1
    59   30   59 1
    60   30   60 1
    61   30   61 1
    62   31   34 ar
    63   32   35 ar
    64   34   35 ar
    65   34   62 1
    66   36   63 1
    67   36   64 1
    68   36   65 1
