@<TRIPOS>MOLECULE
5328940
   65    68     0     0     0
SMALL
NO_CHARGES

@<TRIPOS>ATOM
      1 Cl1         4.8720  -25.0440    3.5550 Cl        1 UNK         0.0000
      2 Cl2         4.8980  -30.4040    2.8950 Cl        1 UNK         0.0000
      3 O1         10.1270  -23.4610   -0.8580 O.3       1 UNK         0.0000
      4 O2          9.0210  -24.1470    1.5610 O.3       1 UNK         0.0000
      5 O3          4.1620  -29.7430    0.1130 O.3       1 UNK         0.0000
      6 N1          9.5050  -26.7690   -2.1620 N.3       1 UNK         0.0000
      7 N2          7.0110  -28.0020   -2.7670 N.3       1 UNK         0.0000
      8 N3          4.1230  -24.9850    0.6780 N.pl3     1 UNK         0.0000
      9 N4          5.8880  -23.9430   -2.9410 N.ar      1 UNK         0.0000
     10 N5          1.4520  -25.0880   -1.6840 N.1       1 UNK         0.0000
     11 C1          8.8680  -27.6850   -1.2040 C.3       1 UNK         0.0000
     12 C2          9.1660  -27.1390   -3.5430 C.3       1 UNK         0.0000
     13 C3          7.3500  -27.6330   -1.3850 C.3       1 UNK         0.0000
     14 C4          7.6470  -27.0880   -3.7240 C.3       1 UNK         0.0000
     15 C5         10.9600  -26.7340   -1.9680 C.3       1 UNK         0.0000
     16 C6         11.3280  -25.5470   -1.0760 C.3       1 UNK         0.0000
     17 C7          5.5560  -28.0390   -2.9600 C.3       1 UNK         0.0000
     18 C8         10.9100  -24.2440   -1.7600 C.3       1 UNK         0.0000
     19 C9          8.8010  -23.7480   -0.7820 C.ar      1 UNK         0.0000
     20 C10         8.2370  -24.0980    0.4520 C.ar      1 UNK         0.0000
     21 C11         6.0950  -24.3400   -0.5930 C.ar      1 UNK         0.0000
     22 C12         8.0270  -23.6910   -1.9190 C.ar      1 UNK         0.0000
     23 C13         6.6570  -23.9870   -1.8430 C.ar      1 UNK         0.0000
     24 C14         6.9070  -24.3900    0.5510 C.ar      1 UNK         0.0000
     25 C15         4.7150  -24.6370   -0.5200 C.ar      1 UNK         0.0000
     26 C16         3.9660  -24.5670   -1.7040 C.ar      1 UNK         0.0000
     27 C17         4.6070  -24.2080   -2.9020 C.ar      1 UNK         0.0000
     28 C18         4.3060  -26.2690    1.2000 C.ar      1 UNK         0.0000
     29 C19         4.1410  -27.3800    0.3860 C.ar      1 UNK         0.0000
     30 C20         8.4820  -24.8080    2.7090 C.3       1 UNK         0.0000
     31 C21         4.6580  -26.4330    2.5360 C.ar      1 UNK         0.0000
     32 C22         4.3230  -28.6520    0.9070 C.ar      1 UNK         0.0000
     33 C23         2.5640  -24.8570   -1.6930 C.1       1 UNK         0.0000
     34 C24         4.8340  -27.7030    3.0530 C.ar      1 UNK         0.0000
     35 C25         4.6690  -28.8110    2.2420 C.ar      1 UNK         0.0000
     36 C26         2.8640  -29.9480   -0.4520 C.3       1 UNK         0.0000
     37 H1          9.2220  -28.7010   -1.3810 H         1 UNK         0.0000
     38 H2          9.1240  -27.3830   -0.1880 H         1 UNK         0.0000
     39 H3          9.6390  -26.4390   -4.2320 H         1 UNK         0.0000
     40 H4          9.5230  -28.1480   -3.7470 H         1 UNK         0.0000
     41 H5          6.9930  -26.6240   -1.1800 H         1 UNK         0.0000
     42 H6          6.8770  -28.3330   -0.6950 H         1 UNK         0.0000
     43 H7          7.2940  -26.0720   -3.5460 H         1 UNK         0.0000
     44 H8          7.3920  -27.3890   -4.7400 H         1 UNK         0.0000
     45 H9         11.4530  -26.6280   -2.9340 H         1 UNK         0.0000
     46 H10        11.2870  -27.6590   -1.4930 H         1 UNK         0.0000
     47 H11        12.4050  -25.5390   -0.9070 H         1 UNK         0.0000
     48 H12        10.8110  -25.6360   -0.1190 H         1 UNK         0.0000
     49 H13         5.3320  -28.1000   -4.0250 H         1 UNK         0.0000
     50 H14         5.1430  -28.9100   -2.4520 H         1 UNK         0.0000
     51 H15         5.1120  -27.1330   -2.5470 H         1 UNK         0.0000
     52 H16        10.3220  -24.4730   -2.6480 H         1 UNK         0.0000
     53 H17        11.8000  -23.6840   -2.0490 H         1 UNK         0.0000
     54 H18         8.4710  -23.4210   -2.8650 H         1 UNK         0.0000
     55 H19         6.4800  -24.6580    1.5060 H         1 UNK         0.0000
     56 H20         3.5800  -24.3390    1.1570 H         1 UNK         0.0000
     57 H21         4.0300  -24.1540   -3.8120 H         1 UNK         0.0000
     58 H22         3.8710  -27.2560   -0.6520 H         1 UNK         0.0000
     59 H23         7.5680  -25.3330    2.4300 H         1 UNK         0.0000
     60 H24         9.2100  -25.5230    3.0910 H         1 UNK         0.0000
     61 H25         8.2570  -24.0700    3.4790 H         1 UNK         0.0000
     62 H26         5.1040  -27.8290    4.0920 H         1 UNK         0.0000
     63 H27         2.8020  -30.9550   -0.8630 H         1 UNK         0.0000
     64 H28         2.1070  -29.8230    0.3220 H         1 UNK         0.0000
     65 H29         2.6960  -29.2200   -1.2470 H         1 UNK         0.0000
@<TRIPOS>BOND
     1    1   31 1
     2    2   35 1
     3    3   18 1
     4    3   19 1
     5    4   20 1
     6    4   30 1
     7    5   32 1
     8    5   36 1
     9    6   11 1
    10    6   12 1
    11    6   15 1
    12    7   13 1
    13    7   14 1
    14    7   17 1
    15    8   25 1
    16    8   28 1
    17    8   56 1
    18    9   23 ar
    19    9   27 ar
    20   10   33 3
    21   11   13 1
    22   11   37 1
    23   11   38 1
    24   12   14 1
    25   12   39 1
    26   12   40 1
    27   13   41 1
    28   13   42 1
    29   14   43 1
    30   14   44 1
    31   15   16 1
    32   15   45 1
    33   15   46 1
    34   16   18 1
    35   16   47 1
    36   16   48 1
    37   17   49 1
    38   17   50 1
    39   17   51 1
    40   18   52 1
    41   18   53 1
    42   19   20 ar
    43   19   22 ar
    44   20   24 ar
    45   21   23 ar
    46   21   24 ar
    47   21   25 ar
    48   22   23 ar
    49   22   54 1
    50   24   55 1
    51   25   26 ar
    52   26   27 ar
    53   26   33 1
    54   27   57 1
    55   28   29 ar
    56   28   31 ar
    57   29   32 ar
    58   29   58 1
    59   30   59 1
    60   30   60 1
    61   30   61 1
    62   31   34 ar
    63   32   35 ar
    64   34   35 ar
    65   34   62 1
    66   36   63 1
    67   36   64 1
    68   36   65 1
