@<TRIPOS>MOLECULE
5328940
   65    68     0     0     0
SMALL
NO_CHARGES

@<TRIPOS>ATOM
      1 Cl1         2.4430  -22.7230   -0.8850 Cl        1 UNK         0.0000
      2 Cl2         3.2360  -23.9420   -6.0870 Cl        1 UNK         0.0000
      3 O1          3.1510  -29.1160    1.9440 O.3       1 UNK         0.0000
      4 O2          1.7730  -27.0080    0.8450 O.3       1 UNK         0.0000
      5 O3          5.9320  -24.7130   -5.1630 O.3       1 UNK         0.0000
      6 N1          4.3510  -27.2060    4.7450 N.3       1 UNK         0.0000
      7 N2          6.2450  -25.0790    4.7380 N.3       1 UNK         0.0000
      8 N3          5.2550  -23.6280   -0.5450 N.pl3     1 UNK         0.0000
      9 N4          7.2530  -26.8690    1.1290 N.ar      1 UNK         0.0000
     10 N5          8.7060  -22.7510   -0.7420 N.1       1 UNK         0.0000
     11 C1          5.6440  -27.3490    5.4300 C.3       1 UNK         0.0000
     12 C2          3.9070  -25.8050    4.7560 C.3       1 UNK         0.0000
     13 C3          6.6900  -26.4810    4.7290 C.3       1 UNK         0.0000
     14 C4          4.9530  -24.9360    4.0540 C.3       1 UNK         0.0000
     15 C5          3.3380  -28.0840    5.3440 C.3       1 UNK         0.0000
     16 C6          2.4980  -28.7240    4.2380 C.3       1 UNK         0.0000
     17 C7          7.2590  -24.2010    4.1400 C.3       1 UNK         0.0000
     18 C8          3.4090  -29.5090    3.2930 C.3       1 UNK         0.0000
     19 C9          3.8330  -28.0390    1.4730 C.ar      1 UNK         0.0000
     20 C10         3.1300  -26.9640    0.9120 C.ar      1 UNK         0.0000
     21 C11         5.1960  -25.8240    0.5020 C.ar      1 UNK         0.0000
     22 C12         5.2070  -28.0170    1.5520 C.ar      1 UNK         0.0000
     23 C13         5.9140  -26.9060    1.0660 C.ar      1 UNK         0.0000
     24 C14         3.7950  -25.8720    0.4330 C.ar      1 UNK         0.0000
     25 C15         5.9120  -24.7070    0.0140 C.ar      1 UNK         0.0000
     26 C16         7.3100  -24.7290    0.1150 C.ar      1 UNK         0.0000
     27 C17         7.9400  -25.8450    0.6900 C.ar      1 UNK         0.0000
     28 C18         4.7790  -23.7040   -1.8580 C.ar      1 UNK         0.0000
     29 C19         5.6020  -24.1770   -2.8690 C.ar      1 UNK         0.0000
     30 C20         1.1430  -26.1570   -0.1150 C.3       1 UNK         0.0000
     31 C21         3.4780  -23.3090   -2.1500 C.ar      1 UNK         0.0000
     32 C22         5.1280  -24.2500   -4.1700 C.ar      1 UNK         0.0000
     33 C23         8.0890  -23.6260   -0.3620 C.1       1 UNK         0.0000
     34 C24         3.0090  -23.3780   -3.4490 C.ar      1 UNK         0.0000
     35 C25         3.8300  -23.8500   -4.4580 C.ar      1 UNK         0.0000
     36 C26         6.8050  -23.7670   -5.7850 C.3       1 UNK         0.0000
     37 H1          5.5430  -27.0310    6.4680 H         1 UNK         0.0000
     38 H2          5.9570  -28.3930    5.3990 H         1 UNK         0.0000
     39 H3          2.9540  -25.7230    4.2310 H         1 UNK         0.0000
     40 H4          3.7860  -25.4690    5.7850 H         1 UNK         0.0000
     41 H5          6.8100  -26.8170    3.6990 H         1 UNK         0.0000
     42 H6          7.6420  -26.5630    5.2520 H         1 UNK         0.0000
     43 H7          5.0540  -25.2540    3.0160 H         1 UNK         0.0000
     44 H8          4.6380  -23.8930    4.0850 H         1 UNK         0.0000
     45 H9          2.6920  -27.4990    5.9990 H         1 UNK         0.0000
     46 H10         3.8300  -28.8650    5.9230 H         1 UNK         0.0000
     47 H11         1.9800  -27.9450    3.6790 H         1 UNK         0.0000
     48 H12         1.7660  -29.4000    4.6810 H         1 UNK         0.0000
     49 H13         7.0730  -23.1710    4.4440 H         1 UNK         0.0000
     50 H14         8.2490  -24.5060    4.4780 H         1 UNK         0.0000
     51 H15         7.2070  -24.2750    3.0540 H         1 UNK         0.0000
     52 H16         3.2150  -30.5760    3.4040 H         1 UNK         0.0000
     53 H17         4.4520  -29.3020    3.5380 H         1 UNK         0.0000
     54 H18         5.7390  -28.8500    1.9860 H         1 UNK         0.0000
     55 H19         3.2460  -25.0480    0.0030 H         1 UNK         0.0000
     56 H20         5.1230  -22.8190   -0.0270 H         1 UNK         0.0000
     57 H21         9.0160  -25.8610    0.7680 H         1 UNK         0.0000
     58 H22         6.6120  -24.4880   -2.6440 H         1 UNK         0.0000
     59 H23         0.1800  -25.8230    0.2710 H         1 UNK         0.0000
     60 H24         1.7790  -25.2920   -0.3050 H         1 UNK         0.0000
     61 H25         0.9910  -26.7080   -1.0430 H         1 UNK         0.0000
     62 H26         1.9990  -23.0680   -3.6750 H         1 UNK         0.0000
     63 H27         6.6660  -23.8000   -6.8650 H         1 UNK         0.0000
     64 H28         6.5770  -22.7660   -5.4180 H         1 UNK         0.0000
     65 H29         7.8400  -24.0150   -5.5440 H         1 UNK         0.0000
@<TRIPOS>BOND
     1    1   31 1
     2    2   35 1
     3    3   18 1
     4    3   19 1
     5    4   20 1
     6    4   30 1
     7    5   32 1
     8    5   36 1
     9    6   11 1
    10    6   12 1
    11    6   15 1
    12    7   13 1
    13    7   14 1
    14    7   17 1
    15    8   25 1
    16    8   28 1
    17    8   56 1
    18    9   23 ar
    19    9   27 ar
    20   10   33 3
    21   11   13 1
    22   11   37 1
    23   11   38 1
    24   12   14 1
    25   12   39 1
    26   12   40 1
    27   13   41 1
    28   13   42 1
    29   14   43 1
    30   14   44 1
    31   15   16 1
    32   15   45 1
    33   15   46 1
    34   16   18 1
    35   16   47 1
    36   16   48 1
    37   17   49 1
    38   17   50 1
    39   17   51 1
    40   18   52 1
    41   18   53 1
    42   19   20 ar
    43   19   22 ar
    44   20   24 ar
    45   21   23 ar
    46   21   24 ar
    47   21   25 ar
    48   22   23 ar
    49   22   54 1
    50   24   55 1
    51   25   26 ar
    52   26   27 ar
    53   26   33 1
    54   27   57 1
    55   28   29 ar
    56   28   31 ar
    57   29   32 ar
    58   29   58 1
    59   30   59 1
    60   30   60 1
    61   30   61 1
    62   31   34 ar
    63   32   35 ar
    64   34   35 ar
    65   34   62 1
    66   36   63 1
    67   36   64 1
    68   36   65 1
