@<TRIPOS>MOLECULE
5328940
   65    68     0     0     0
SMALL
NO_CHARGES

@<TRIPOS>ATOM
      1 Cl1         3.4770  -22.7480   -5.9330 Cl        1 UNK         0.0000
      2 Cl2         3.1800  -28.0400   -4.8970 Cl        1 UNK         0.0000
      3 O1         11.3330  -22.9740   -0.8880 O.3       1 UNK         0.0000
      4 O2          8.6740  -23.0810   -0.2030 O.3       1 UNK         0.0000
      5 O3          5.8110  -27.6120   -3.6250 O.3       1 UNK         0.0000
      6 N1         10.3160  -25.1590    1.3190 N.3       1 UNK         0.0000
      7 N2          8.0470  -26.7060    2.0730 N.3       1 UNK         0.0000
      8 N3          6.1000  -22.9180   -4.5430 N.pl3     1 UNK         0.0000
      9 N4         10.1490  -22.7680   -5.4820 N.ar      1 UNK         0.0000
     10 N5          6.1870  -22.7290   -8.1030 N.1       1 UNK         0.0000
     11 C1         10.0290  -25.4310    2.7350 C.3       1 UNK         0.0000
     12 C2          9.8430  -26.2610    0.4700 C.3       1 UNK         0.0000
     13 C3          8.5210  -25.6050    2.9240 C.3       1 UNK         0.0000
     14 C4          8.3350  -26.4350    0.6580 C.3       1 UNK         0.0000
     15 C5         11.7480  -24.9100    1.1110 C.3       1 UNK         0.0000
     16 C6         12.1100  -25.1970   -0.3470 C.3       1 UNK         0.0000
     17 C7          6.6160  -26.9550    2.2820 C.3       1 UNK         0.0000
     18 C8         12.4210  -23.8820   -1.0640 C.3       1 UNK         0.0000
     19 C9         10.3860  -22.9470   -1.8620 C.ar      1 UNK         0.0000
     20 C10         9.0290  -23.0020   -1.5140 C.ar      1 UNK         0.0000
     21 C11         8.4260  -22.8950   -3.8290 C.ar      1 UNK         0.0000
     22 C12        10.7700  -22.8670   -3.1820 C.ar      1 UNK         0.0000
     23 C13         9.7940  -22.8400   -4.1900 C.ar      1 UNK         0.0000
     24 C14         8.0620  -22.9760   -2.4760 C.ar      1 UNK         0.0000
     25 C15         7.4460  -22.8670   -4.8470 C.ar      1 UNK         0.0000
     26 C16         7.8850  -22.7850   -6.1770 C.ar      1 UNK         0.0000
     27 C17         9.2630  -22.7350   -6.4440 C.ar      1 UNK         0.0000
     28 C18         5.4110  -24.1320   -4.6250 C.ar      1 UNK         0.0000
     29 C19         5.9600  -25.2820   -4.0770 C.ar      1 UNK         0.0000
     30 C20         7.2900  -22.9000    0.1050 C.3       1 UNK         0.0000
     31 C21         4.1710  -24.1870   -5.2520 C.ar      1 UNK         0.0000
     32 C22         5.2750  -26.4840   -4.1610 C.ar      1 UNK         0.0000
     33 C23         6.9380  -22.7530   -7.2510 C.1       1 UNK         0.0000
     34 C24         3.4920  -25.3880   -5.3390 C.ar      1 UNK         0.0000
     35 C25         4.0400  -26.5350   -4.7930 C.ar      1 UNK         0.0000
     36 C26         6.2140  -27.5520   -2.2550 C.3       1 UNK         0.0000
     37 H1         10.5420  -26.3420    3.0420 H         1 UNK         0.0000
     38 H2         10.3780  -24.5950    3.3430 H         1 UNK         0.0000
     39 H3         10.0550  -26.0300   -0.5750 H         1 UNK         0.0000
     40 H4         10.3530  -27.1810    0.7500 H         1 UNK         0.0000
     41 H5          8.0100  -24.6840    2.6430 H         1 UNK         0.0000
     42 H6          8.3080  -25.8350    3.9680 H         1 UNK         0.0000
     43 H7          7.8210  -25.5240    0.3510 H         1 UNK         0.0000
     44 H8          7.9870  -27.2700    0.0490 H         1 UNK         0.0000
     45 H9         12.3280  -25.5620    1.7640 H         1 UNK         0.0000
     46 H10        11.9750  -23.8700    1.3430 H         1 UNK         0.0000
     47 H11        11.2720  -25.6900   -0.8390 H         1 UNK         0.0000
     48 H12        12.9850  -25.8460   -0.3840 H         1 UNK         0.0000
     49 H13         6.1860  -27.3890    1.3800 H         1 UNK         0.0000
     50 H14         6.4850  -27.6460    3.1150 H         1 UNK         0.0000
     51 H15         6.1130  -26.0140    2.5080 H         1 UNK         0.0000
     52 H16        12.5660  -24.0740   -2.1270 H         1 UNK         0.0000
     53 H17        13.3290  -23.4460   -0.6470 H         1 UNK         0.0000
     54 H18        11.8170  -22.8260   -3.4400 H         1 UNK         0.0000
     55 H19         7.0190  -23.0190   -2.1980 H         1 UNK         0.0000
     56 H20         5.6330  -22.1130   -4.2710 H         1 UNK         0.0000
     57 H21         9.5990  -22.6720   -7.4680 H         1 UNK         0.0000
     58 H22         6.9210  -25.2410   -3.5860 H         1 UNK         0.0000
     59 H23         6.9680  -23.6720    0.8030 H         1 UNK         0.0000
     60 H24         7.1440  -21.9180    0.5570 H         1 UNK         0.0000
     61 H25         6.7020  -22.9700   -0.8110 H         1 UNK         0.0000
     62 H26         2.5300  -25.4300   -5.8290 H         1 UNK         0.0000
     63 H27         6.7030  -26.5970   -2.0620 H         1 UNK         0.0000
     64 H28         5.3390  -27.6490   -1.6140 H         1 UNK         0.0000
     65 H29         6.9100  -28.3650   -2.0460 H         1 UNK         0.0000
@<TRIPOS>BOND
     1    1   31 1
     2    2   35 1
     3    3   18 1
     4    3   19 1
     5    4   20 1
     6    4   30 1
     7    5   32 1
     8    5   36 1
     9    6   11 1
    10    6   12 1
    11    6   15 1
    12    7   13 1
    13    7   14 1
    14    7   17 1
    15    8   25 1
    16    8   28 1
    17    8   56 1
    18    9   23 ar
    19    9   27 ar
    20   10   33 3
    21   11   13 1
    22   11   37 1
    23   11   38 1
    24   12   14 1
    25   12   39 1
    26   12   40 1
    27   13   41 1
    28   13   42 1
    29   14   43 1
    30   14   44 1
    31   15   16 1
    32   15   45 1
    33   15   46 1
    34   16   18 1
    35   16   47 1
    36   16   48 1
    37   17   49 1
    38   17   50 1
    39   17   51 1
    40   18   52 1
    41   18   53 1
    42   19   20 ar
    43   19   22 ar
    44   20   24 ar
    45   21   23 ar
    46   21   24 ar
    47   21   25 ar
    48   22   23 ar
    49   22   54 1
    50   24   55 1
    51   25   26 ar
    52   26   27 ar
    53   26   33 1
    54   27   57 1
    55   28   29 ar
    56   28   31 ar
    57   29   32 ar
    58   29   58 1
    59   30   59 1
    60   30   60 1
    61   30   61 1
    62   31   34 ar
    63   32   35 ar
    64   34   35 ar
    65   34   62 1
    66   36   63 1
    67   36   64 1
    68   36   65 1
