@<TRIPOS>MOLECULE
5328940
   65    68     0     0     0
SMALL
NO_CHARGES

@<TRIPOS>ATOM
      1 Cl1        10.2860  -22.7210   -5.6620 Cl        1 UNK         0.0000
      2 Cl2        11.6200  -27.9400   -6.0610 Cl        1 UNK         0.0000
      3 O1          7.8370  -23.0260    0.9550 O.3       1 UNK         0.0000
      4 O2          9.7770  -22.7740   -0.9740 O.3       1 UNK         0.0000
      5 O3          8.7160  -28.3750   -5.7450 O.3       1 UNK         0.0000
      6 N1          7.9440  -26.5380    0.8520 N.3       1 UNK         0.0000
      7 N2          6.3390  -28.6360   -0.2100 N.3       1 UNK         0.0000
      8 N3          7.5110  -23.7520   -5.3780 N.pl3     1 UNK         0.0000
      9 N4          4.6420  -24.1030   -2.3870 N.ar      1 UNK         0.0000
     10 N5          4.5170  -24.6220   -7.1080 N.1       1 UNK         0.0000
     11 C1          7.6820  -27.7530    1.6360 C.3       1 UNK         0.0000
     12 C2          7.9560  -26.8370   -0.5870 C.3       1 UNK         0.0000
     13 C3          6.3280  -28.3380    1.2290 C.3       1 UNK         0.0000
     14 C4          6.6020  -27.4220   -0.9940 C.3       1 UNK         0.0000
     15 C5          9.2020  -25.9040    1.2680 C.3       1 UNK         0.0000
     16 C6          8.9020  -24.7680    2.2480 C.3       1 UNK         0.0000
     17 C7          5.0820  -29.2700   -0.6260 C.3       1 UNK         0.0000
     18 C8          7.5820  -24.0980    1.8640 C.3       1 UNK         0.0000
     19 C9          7.5190  -23.2340   -0.3500 C.ar      1 UNK         0.0000
     20 C10         8.5080  -23.1050   -1.3340 C.ar      1 UNK         0.0000
     21 C11         6.9010  -23.6510   -3.0240 C.ar      1 UNK         0.0000
     22 C12         6.2270  -23.5680   -0.6900 C.ar      1 UNK         0.0000
     23 C13         5.8960  -23.7830   -2.0370 C.ar      1 UNK         0.0000
     24 C14         8.2100  -23.3090   -2.6500 C.ar      1 UNK         0.0000
     25 C15         6.5640  -23.8680   -4.3800 C.ar      1 UNK         0.0000
     26 C16         5.2360  -24.2060   -4.6780 C.ar      1 UNK         0.0000
     27 C17         4.3030  -24.3160   -3.6330 C.ar      1 UNK         0.0000
     28 C18         8.4820  -24.7450   -5.5390 C.ar      1 UNK         0.0000
     29 C19         8.1110  -26.0820   -5.5630 C.ar      1 UNK         0.0000
     30 C20        10.8250  -23.1510   -1.8710 C.3       1 UNK         0.0000
     31 C21         9.8200  -24.3940   -5.6830 C.ar      1 UNK         0.0000
     32 C22         9.0760  -27.0640   -5.7230 C.ar      1 UNK         0.0000
     33 C23         4.8340  -24.4390   -6.0330 C.1       1 UNK         0.0000
     34 C24        10.7800  -25.3760   -5.8380 C.ar      1 UNK         0.0000
     35 C25        10.4110  -26.7090   -5.8600 C.ar      1 UNK         0.0000
     36 C26         7.8600  -28.7940   -6.8110 C.3       1 UNK         0.0000
     37 H1          8.4670  -28.4850    1.4460 H         1 UNK         0.0000
     38 H2          7.6670  -27.5030    2.6970 H         1 UNK         0.0000
     39 H3          8.1390  -25.9190   -1.1460 H         1 UNK         0.0000
     40 H4          8.7430  -27.5580   -0.8020 H         1 UNK         0.0000
     41 H5          5.5410  -27.6160    1.4450 H         1 UNK         0.0000
     42 H6          6.1450  -29.2550    1.7890 H         1 UNK         0.0000
     43 H7          5.8170  -26.6900   -0.8040 H         1 UNK         0.0000
     44 H8          6.6180  -27.6700   -2.0550 H         1 UNK         0.0000
     45 H9          9.7140  -25.5030    0.3930 H         1 UNK         0.0000
     46 H10         9.8390  -26.6430    1.7540 H         1 UNK         0.0000
     47 H11         9.7060  -24.0340    2.2100 H         1 UNK         0.0000
     48 H12         8.8250  -25.1700    3.2590 H         1 UNK         0.0000
     49 H13         5.1570  -30.3490   -0.4910 H         1 UNK         0.0000
     50 H14         4.2620  -28.8850   -0.0210 H         1 UNK         0.0000
     51 H15         4.8940  -29.0480   -1.6770 H         1 UNK         0.0000
     52 H16         7.0990  -23.7070    2.7600 H         1 UNK         0.0000
     53 H17         6.9270  -24.8300    1.3890 H         1 UNK         0.0000
     54 H18         5.4730  -23.6640    0.0760 H         1 UNK         0.0000
     55 H19         8.9790  -23.2080   -3.4020 H         1 UNK         0.0000
     56 H20         7.5030  -22.9810   -5.9660 H         1 UNK         0.0000
     57 H21         3.2810  -24.5760   -3.8650 H         1 UNK         0.0000
     58 H22         7.0720  -26.3570   -5.4560 H         1 UNK         0.0000
     59 H23        11.7820  -22.8190   -1.4720 H         1 UNK         0.0000
     60 H24        10.8330  -24.2350   -1.9820 H         1 UNK         0.0000
     61 H25        10.6550  -22.6870   -2.8420 H         1 UNK         0.0000
     62 H26        11.8200  -25.1020   -5.9450 H         1 UNK         0.0000
     63 H27         8.2690  -29.6920   -7.2720 H         1 UNK         0.0000
     64 H28         6.8670  -29.0070   -6.4160 H         1 UNK         0.0000
     65 H29         7.7930  -28.0010   -7.5560 H         1 UNK         0.0000
@<TRIPOS>BOND
     1    1   31 1
     2    2   35 1
     3    3   18 1
     4    3   19 1
     5    4   20 1
     6    4   30 1
     7    5   32 1
     8    5   36 1
     9    6   11 1
    10    6   12 1
    11    6   15 1
    12    7   13 1
    13    7   14 1
    14    7   17 1
    15    8   25 1
    16    8   28 1
    17    8   56 1
    18    9   23 ar
    19    9   27 ar
    20   10   33 3
    21   11   13 1
    22   11   37 1
    23   11   38 1
    24   12   14 1
    25   12   39 1
    26   12   40 1
    27   13   41 1
    28   13   42 1
    29   14   43 1
    30   14   44 1
    31   15   16 1
    32   15   45 1
    33   15   46 1
    34   16   18 1
    35   16   47 1
    36   16   48 1
    37   17   49 1
    38   17   50 1
    39   17   51 1
    40   18   52 1
    41   18   53 1
    42   19   20 ar
    43   19   22 ar
    44   20   24 ar
    45   21   23 ar
    46   21   24 ar
    47   21   25 ar
    48   22   23 ar
    49   22   54 1
    50   24   55 1
    51   25   26 ar
    52   26   27 ar
    53   26   33 1
    54   27   57 1
    55   28   29 ar
    56   28   31 ar
    57   29   32 ar
    58   29   58 1
    59   30   59 1
    60   30   60 1
    61   30   61 1
    62   31   34 ar
    63   32   35 ar
    64   34   35 ar
    65   34   62 1
    66   36   63 1
    67   36   64 1
    68   36   65 1
