@<TRIPOS>MOLECULE
5328940
   65    68     0     0     0
SMALL
NO_CHARGES

@<TRIPOS>ATOM
      1 Cl1         4.1390  -23.1340   -1.3730 Cl        1 UNK         0.0000
      2 Cl2         3.2350  -28.0820   -3.3400 Cl        1 UNK         0.0000
      3 O1         10.4710  -25.2800    2.3570 O.3       1 UNK         0.0000
      4 O2          7.7550  -24.9070    2.1820 O.3       1 UNK         0.0000
      5 O3          6.0200  -27.8620   -4.2960 O.3       1 UNK         0.0000
      6 N1          9.4710  -28.7080    0.6990 N.3       1 UNK         0.0000
      7 N2          6.7290  -28.1630    0.1580 N.3       1 UNK         0.0000
      8 N3          6.8400  -23.4680   -2.5690 N.pl3     1 UNK         0.0000
      9 N4         10.9410  -24.0670   -2.2090 N.ar      1 UNK         0.0000
     10 N5          8.1420  -22.7210   -5.8040 N.1       1 UNK         0.0000
     11 C1          9.0720  -28.0240   -0.5390 C.3       1 UNK         0.0000
     12 C2          8.5370  -28.3990    1.7910 C.3       1 UNK         0.0000
     13 C3          7.6630  -28.4710   -0.9350 C.3       1 UNK         0.0000
     14 C4          7.1280  -28.8460    1.3960 C.3       1 UNK         0.0000
     15 C5         10.8490  -28.3620    1.0700 C.3       1 UNK         0.0000
     16 C6         10.8520  -27.6660    2.4320 C.3       1 UNK         0.0000
     17 C7          5.3510  -28.5070   -0.2130 C.3       1 UNK         0.0000
     18 C8         11.4880  -26.2810    2.2960 C.3       1 UNK         0.0000
     19 C9          9.9210  -24.8850    1.1790 C.ar      1 UNK         0.0000
     20 C10         8.5360  -24.6950    1.0890 C.ar      1 UNK         0.0000
     21 C11         8.7670  -24.0780   -1.2130 C.ar      1 UNK         0.0000
     22 C12        10.7320  -24.6770    0.0860 C.ar      1 UNK         0.0000
     23 C13        10.1670  -24.2690   -1.1320 C.ar      1 UNK         0.0000
     24 C14         7.9630  -24.2980   -0.0840 C.ar      1 UNK         0.0000
     25 C15         8.2010  -23.6670   -2.4420 C.ar      1 UNK         0.0000
     26 C16         9.0660  -23.4680   -3.5280 C.ar      1 UNK         0.0000
     27 C17        10.4440  -23.6800   -3.3560 C.ar      1 UNK         0.0000
     28 C18         5.9890  -24.5620   -2.7530 C.ar      1 UNK         0.0000
     29 C19         6.4340  -25.6810   -3.4410 C.ar      1 UNK         0.0000
     30 C20         6.3580  -25.1090    1.9520 C.3       1 UNK         0.0000
     31 C21         4.6960  -24.5310   -2.2410 C.ar      1 UNK         0.0000
     32 C22         5.5870  -26.7640   -3.6220 C.ar      1 UNK         0.0000
     33 C23         8.5520  -23.0510   -4.7970 C.1       1 UNK         0.0000
     34 C24         3.8520  -25.6100   -2.4270 C.ar      1 UNK         0.0000
     35 C25         4.2960  -26.7260   -3.1140 C.ar      1 UNK         0.0000
     36 C26         6.1000  -27.7590   -5.7200 C.3       1 UNK         0.0000
     37 H1          9.0800  -26.9460   -0.3780 H         1 UNK         0.0000
     38 H2          9.7710  -28.2780   -1.3360 H         1 UNK         0.0000
     39 H3          8.8470  -28.9270    2.6930 H         1 UNK         0.0000
     40 H4          8.5390  -27.3260    1.9790 H         1 UNK         0.0000
     41 H5          7.6610  -29.5440   -1.1220 H         1 UNK         0.0000
     42 H6          7.3530  -27.9430   -1.8370 H         1 UNK         0.0000
     43 H7          7.1200  -29.9240    1.2350 H         1 UNK         0.0000
     44 H8          6.4300  -28.5920    2.1930 H         1 UNK         0.0000
     45 H9         11.2700  -27.6940    0.3190 H         1 UNK         0.0000
     46 H10        11.4500  -29.2700    1.1260 H         1 UNK         0.0000
     47 H11        11.4250  -28.2600    3.1430 H         1 UNK         0.0000
     48 H12         9.8270  -27.5610    2.7900 H         1 UNK         0.0000
     49 H13         4.6570  -27.8670    0.3300 H         1 UNK         0.0000
     50 H14         5.2160  -28.3620   -1.2850 H         1 UNK         0.0000
     51 H15         5.1570  -29.5500    0.0390 H         1 UNK         0.0000
     52 H16        12.0090  -26.2130    1.3410 H         1 UNK         0.0000
     53 H17        12.1990  -26.1260    3.1090 H         1 UNK         0.0000
     54 H18        11.7980  -24.8270    0.1660 H         1 UNK         0.0000
     55 H19         6.8940  -24.1530   -0.1450 H         1 UNK         0.0000
     56 H20         6.4760  -22.5700   -2.5310 H         1 UNK         0.0000
     57 H21        11.1090  -23.5260   -4.1920 H         1 UNK         0.0000
     58 H22         7.4390  -25.7100   -3.8360 H         1 UNK         0.0000
     59 H23         5.8540  -24.1440    1.9020 H         1 UNK         0.0000
     60 H24         6.2190  -25.6400    1.0100 H         1 UNK         0.0000
     61 H25         5.9370  -25.6970    2.7680 H         1 UNK         0.0000
     62 H26         2.8470  -25.5830   -2.0330 H         1 UNK         0.0000
     63 H27         7.1160  -27.4900   -6.0070 H         1 UNK         0.0000
     64 H28         5.8360  -28.7160   -6.1690 H         1 UNK         0.0000
     65 H29         5.4090  -26.9900   -6.0670 H         1 UNK         0.0000
@<TRIPOS>BOND
     1    1   31 1
     2    2   35 1
     3    3   18 1
     4    3   19 1
     5    4   20 1
     6    4   30 1
     7    5   32 1
     8    5   36 1
     9    6   11 1
    10    6   12 1
    11    6   15 1
    12    7   13 1
    13    7   14 1
    14    7   17 1
    15    8   25 1
    16    8   28 1
    17    8   56 1
    18    9   23 ar
    19    9   27 ar
    20   10   33 3
    21   11   13 1
    22   11   37 1
    23   11   38 1
    24   12   14 1
    25   12   39 1
    26   12   40 1
    27   13   41 1
    28   13   42 1
    29   14   43 1
    30   14   44 1
    31   15   16 1
    32   15   45 1
    33   15   46 1
    34   16   18 1
    35   16   47 1
    36   16   48 1
    37   17   49 1
    38   17   50 1
    39   17   51 1
    40   18   52 1
    41   18   53 1
    42   19   20 ar
    43   19   22 ar
    44   20   24 ar
    45   21   23 ar
    46   21   24 ar
    47   21   25 ar
    48   22   23 ar
    49   22   54 1
    50   24   55 1
    51   25   26 ar
    52   26   27 ar
    53   26   33 1
    54   27   57 1
    55   28   29 ar
    56   28   31 ar
    57   29   32 ar
    58   29   58 1
    59   30   59 1
    60   30   60 1
    61   30   61 1
    62   31   34 ar
    63   32   35 ar
    64   34   35 ar
    65   34   62 1
    66   36   63 1
    67   36   64 1
    68   36   65 1
