@<TRIPOS>MOLECULE
25174101
   55    58     0     0     0
SMALL
NO_CHARGES

@<TRIPOS>ATOM
      1 O1          7.1170   -5.6390   -8.1990 O.2       1 UNK         0.0000
      2 N1          7.9730   -5.5590  -11.3530 N.pl3     1 UNK         0.0000
      3 N2          9.2880   -5.5350  -11.8330 N.2       1 UNK         0.0000
      4 N3          6.6630   -4.1710   -9.8030 N.am      1 UNK         0.0000
      5 N4          5.2490   -4.4610   -7.9680 N.am      1 UNK         0.0000
      6 N5          4.0560   -6.7830  -13.8960 N.pl3     1 UNK         0.0000
      7 C1         11.3400   -4.1250  -11.5420 C.3       1 UNK         0.0000
      8 C2          9.9070   -4.5150  -11.2930 C.2       1 UNK         0.0000
      9 C3         12.2480   -4.8660  -10.5580 C.3       1 UNK         0.0000
     10 C4         11.7300   -4.4940  -12.9740 C.3       1 UNK         0.0000
     11 C5         11.4990   -2.6160  -11.3430 C.3       1 UNK         0.0000
     12 C6          9.0100   -3.8470  -10.4550 C.2       1 UNK         0.0000
     13 C7          7.8230   -4.5100  -10.4990 C.2       1 UNK         0.0000
     14 C8          6.9870   -6.4960  -11.6910 C.ar      1 UNK         0.0000
     15 C9          6.0100   -6.1720  -12.6210 C.ar      1 UNK         0.0000
     16 C10         6.9830   -7.7490  -11.0900 C.ar      1 UNK         0.0000
     17 C11         6.3690   -4.7880   -8.6410 C.2       1 UNK         0.0000
     18 C12         5.0030   -5.0120   -6.7090 C.ar      1 UNK         0.0000
     19 C13         4.3120   -6.2370   -6.5900 C.ar      1 UNK         0.0000
     20 C14         5.0390   -7.1040  -12.9560 C.ar      1 UNK         0.0000
     21 C15         4.0740   -6.7770   -5.3020 C.ar      1 UNK         0.0000
     22 C16         6.0120   -8.6740  -11.4220 C.ar      1 UNK         0.0000
     23 C17         5.0410   -8.3560  -12.3520 C.ar      1 UNK         0.0000
     24 C18         5.4330   -4.3640   -5.5720 C.ar      1 UNK         0.0000
     25 C19         3.8570   -6.9290   -7.7220 C.ar      1 UNK         0.0000
     26 C20         4.5290   -6.0840   -4.1670 C.ar      1 UNK         0.0000
     27 C21         5.1920   -4.9050   -4.3110 C.ar      1 UNK         0.0000
     28 C22         3.3860   -7.9960   -5.1840 C.ar      1 UNK         0.0000
     29 C23         3.1940   -8.1090   -7.5710 C.ar      1 UNK         0.0000
     30 C24         2.9590   -8.6410   -6.3050 C.ar      1 UNK         0.0000
     31 H1         11.7710   -4.8990   -9.5790 H         1 UNK         0.0000
     32 H2         12.4160   -5.8840  -10.9150 H         1 UNK         0.0000
     33 H3         13.2020   -4.3470  -10.4810 H         1 UNK         0.0000
     34 H4         12.7890   -4.2850  -13.1280 H         1 UNK         0.0000
     35 H5         11.5400   -5.5540  -13.1410 H         1 UNK         0.0000
     36 H6         11.1380   -3.9050  -13.6740 H         1 UNK         0.0000
     37 H7         10.6560   -2.0980  -11.8010 H         1 UNK         0.0000
     38 H8         11.5270   -2.3900  -10.2770 H         1 UNK         0.0000
     39 H9         12.4250   -2.2830  -11.8100 H         1 UNK         0.0000
     40 H10         9.2240   -2.9630   -9.8720 H         1 UNK         0.0000
     41 H11         6.0660   -3.4910  -10.1550 H         1 UNK         0.0000
     42 H12         6.0090   -5.1970  -13.0860 H         1 UNK         0.0000
     43 H13         7.7410   -8.0000  -10.3620 H         1 UNK         0.0000
     44 H14         4.6120   -3.8420   -8.3590 H         1 UNK         0.0000
     45 H15         6.0110   -9.6470  -10.9540 H         1 UNK         0.0000
     46 H16         4.2830   -9.0810  -12.6100 H         1 UNK         0.0000
     47 H17         5.9620   -3.4260   -5.6580 H         1 UNK         0.0000
     48 H18         4.0330   -6.5280   -8.7110 H         1 UNK         0.0000
     49 H19         4.3480   -6.4860   -3.1810 H         1 UNK         0.0000
     50 H20         5.5380   -4.3790   -3.4340 H         1 UNK         0.0000
     51 H21         3.1970   -8.4210   -4.2090 H         1 UNK         0.0000
     52 H22         2.8460   -8.6400   -8.4440 H         1 UNK         0.0000
     53 H23         2.4300   -9.5780   -6.2110 H         1 UNK         0.0000
     54 H24         4.2290   -6.9150  -14.8420 H         1 UNK         0.0000
     55 H25         3.2020   -6.4290  -13.6030 H         1 UNK         0.0000
@<TRIPOS>BOND
     1    1   17 2
     2    2    3 1
     3    2   13 1
     4    2   14 1
     5    3    8 2
     6    4   13 1
     7    4   17 am
     8    4   41 1
     9    5   17 am
    10    5   18 1
    11    5   44 1
    12    6   20 1
    13    6   54 1
    14    6   55 1
    15    7    8 1
    16    7    9 1
    17    7   10 1
    18    7   11 1
    19    8   12 1
    20    9   31 1
    21    9   32 1
    22    9   33 1
    23   10   34 1
    24   10   35 1
    25   10   36 1
    26   11   37 1
    27   11   38 1
    28   11   39 1
    29   12   13 2
    30   12   40 1
    31   14   15 ar
    32   14   16 ar
    33   15   20 ar
    34   15   42 1
    35   16   22 ar
    36   16   43 1
    37   18   19 ar
    38   18   24 ar
    39   19   21 ar
    40   19   25 ar
    41   20   23 ar
    42   21   26 ar
    43   21   28 ar
    44   22   23 ar
    45   22   45 1
    46   23   46 1
    47   24   27 ar
    48   24   47 1
    49   25   29 ar
    50   25   48 1
    51   26   27 ar
    52   26   49 1
    53   27   50 1
    54   28   30 ar
    55   28   51 1
    56   29   30 ar
    57   29   52 1
    58   30   53 1
