@<TRIPOS>MOLECULE
25174101
   55    58     0     0     0
SMALL
NO_CHARGES

@<TRIPOS>ATOM
      1 O1          5.4660   -8.0660   -9.4890 O.2       1 UNK         0.0000
      2 N1          7.7070   -7.0400  -11.8190 N.pl3     1 UNK         0.0000
      3 N2          8.1180   -7.8840  -12.8580 N.2       1 UNK         0.0000
      4 N3          5.5360   -6.3490  -10.8960 N.am      1 UNK         0.0000
      5 N4          4.3440   -6.2460   -8.8910 N.am      1 UNK         0.0000
      6 N5          9.6110   -2.8320  -10.4140 N.pl3     1 UNK         0.0000
      7 C1          7.0450   -9.3470  -14.5890 C.3       1 UNK         0.0000
      8 C2          7.0520   -8.3880  -13.4270 C.2       1 UNK         0.0000
      9 C3          7.3230  -10.7640  -14.0810 C.3       1 UNK         0.0000
     10 C4          5.6790   -9.3100  -15.2750 C.3       1 UNK         0.0000
     11 C5          8.1300   -8.9430  -15.5900 C.3       1 UNK         0.0000
     12 C6          5.9230   -7.8910  -12.7700 C.2       1 UNK         0.0000
     13 C7          6.3470   -7.0550  -11.7840 C.2       1 UNK         0.0000
     14 C8          8.5470   -6.3100  -10.9670 C.ar      1 UNK         0.0000
     15 C9          8.6650   -4.9360  -11.1170 C.ar      1 UNK         0.0000
     16 C10         9.2680   -6.9630   -9.9740 C.ar      1 UNK         0.0000
     17 C11         5.1270   -6.9280   -9.7490 C.2       1 UNK         0.0000
     18 C12         4.0170   -6.8000   -7.6520 C.ar      1 UNK         0.0000
     19 C13         4.5060   -6.2220   -6.4620 C.ar      1 UNK         0.0000
     20 C14         9.4940   -4.2170  -10.2690 C.ar      1 UNK         0.0000
     21 C15         4.1610   -6.8020   -5.2160 C.ar      1 UNK         0.0000
     22 C16        10.0970   -6.2450   -9.1340 C.ar      1 UNK         0.0000
     23 C17        10.2120   -4.8760   -9.2770 C.ar      1 UNK         0.0000
     24 C18         3.2130   -7.9170   -7.5820 C.ar      1 UNK         0.0000
     25 C19         5.3270   -5.0850   -6.4880 C.ar      1 UNK         0.0000
     26 C20         3.3390   -7.9420   -5.1870 C.ar      1 UNK         0.0000
     27 C21         2.8810   -8.4780   -6.3510 C.ar      1 UNK         0.0000
     28 C22         4.6490   -6.2260   -4.0300 C.ar      1 UNK         0.0000
     29 C23         5.7820   -4.5520   -5.3200 C.ar      1 UNK         0.0000
     30 C24         5.4430   -5.1230   -4.0940 C.ar      1 UNK         0.0000
     31 H1          8.1910  -11.1710  -14.5990 H         1 UNK         0.0000
     32 H2          7.5220  -10.7330  -13.0090 H         1 UNK         0.0000
     33 H3          6.4560  -11.3950  -14.2700 H         1 UNK         0.0000
     34 H4          4.9180   -9.6860  -14.5910 H         1 UNK         0.0000
     35 H5          5.4410   -8.2840  -15.5560 H         1 UNK         0.0000
     36 H6          5.7050   -9.9340  -16.1680 H         1 UNK         0.0000
     37 H7          7.8840   -9.3430  -16.5740 H         1 UNK         0.0000
     38 H8          8.1870   -7.8560  -15.6450 H         1 UNK         0.0000
     39 H9          9.0910   -9.3420  -15.2660 H         1 UNK         0.0000
     40 H10         4.8960   -8.1260  -13.0070 H         1 UNK         0.0000
     41 H11         5.2660   -5.4400  -11.1030 H         1 UNK         0.0000
     42 H12         8.1090   -4.4280  -11.8910 H         1 UNK         0.0000
     43 H13         9.1800   -8.0330   -9.8600 H         1 UNK         0.0000
     44 H14         4.0070   -5.3690   -9.1350 H         1 UNK         0.0000
     45 H15        10.6550   -6.7540   -8.3630 H         1 UNK         0.0000
     46 H16        10.8600   -4.3170   -8.6190 H         1 UNK         0.0000
     47 H17         2.8360   -8.3620   -8.4910 H         1 UNK         0.0000
     48 H18         5.5970   -4.6320   -7.4320 H         1 UNK         0.0000
     49 H19         3.0740   -8.3930   -4.2420 H         1 UNK         0.0000
     50 H20         2.2500   -9.3540   -6.3210 H         1 UNK         0.0000
     51 H21         4.3940   -6.6560   -3.0730 H         1 UNK         0.0000
     52 H22         6.4130   -3.6770   -5.3440 H         1 UNK         0.0000
     53 H23         5.8170   -4.6820   -3.1820 H         1 UNK         0.0000
     54 H24        10.2870   -2.3480   -9.9130 H         1 UNK         0.0000
     55 H25         9.0180   -2.3560  -11.0160 H         1 UNK         0.0000
@<TRIPOS>BOND
     1    1   17 2
     2    2    3 1
     3    2   13 1
     4    2   14 1
     5    3    8 2
     6    4   13 1
     7    4   17 am
     8    4   41 1
     9    5   17 am
    10    5   18 1
    11    5   44 1
    12    6   20 1
    13    6   54 1
    14    6   55 1
    15    7    8 1
    16    7    9 1
    17    7   10 1
    18    7   11 1
    19    8   12 1
    20    9   31 1
    21    9   32 1
    22    9   33 1
    23   10   34 1
    24   10   35 1
    25   10   36 1
    26   11   37 1
    27   11   38 1
    28   11   39 1
    29   12   13 2
    30   12   40 1
    31   14   15 ar
    32   14   16 ar
    33   15   20 ar
    34   15   42 1
    35   16   22 ar
    36   16   43 1
    37   18   19 ar
    38   18   24 ar
    39   19   21 ar
    40   19   25 ar
    41   20   23 ar
    42   21   26 ar
    43   21   28 ar
    44   22   23 ar
    45   22   45 1
    46   23   46 1
    47   24   27 ar
    48   24   47 1
    49   25   29 ar
    50   25   48 1
    51   26   27 ar
    52   26   49 1
    53   27   50 1
    54   28   30 ar
    55   28   51 1
    56   29   30 ar
    57   29   52 1
    58   30   53 1
