@<TRIPOS>MOLECULE
25174101
   55    58     0     0     0
SMALL
NO_CHARGES

@<TRIPOS>ATOM
      1 O1          7.7620   -4.8940  -10.2460 O.2       1 UNK         0.0000
      2 N1         10.9650   -3.0800  -11.1400 N.pl3     1 UNK         0.0000
      3 N2         11.1780   -3.0900  -12.5240 N.2       1 UNK         0.0000
      4 N3          9.8440   -4.5750   -9.5420 N.am      1 UNK         0.0000
      5 N4          8.1530   -5.2760   -8.0930 N.am      1 UNK         0.0000
      6 N5         10.3290    1.1980   -8.9960 N.pl3     1 UNK         0.0000
      7 C1         10.6240   -4.5700  -14.4710 C.3       1 UNK         0.0000
      8 C2         10.6270   -4.1700  -13.0190 C.2       1 UNK         0.0000
      9 C3          9.1850   -4.8180  -14.9290 C.3       1 UNK         0.0000
     10 C4         11.2410   -3.4500  -15.3100 C.3       1 UNK         0.0000
     11 C5         11.4430   -5.8500  -14.6490 C.3       1 UNK         0.0000
     12 C6         10.0490   -4.8920  -11.9700 C.2       1 UNK         0.0000
     13 C7         10.2630   -4.2000  -10.8190 C.2       1 UNK         0.0000
     14 C8         11.4000   -2.0930  -10.2450 C.ar      1 UNK         0.0000
     15 C9         10.6520   -0.9370  -10.0690 C.ar      1 UNK         0.0000
     16 C10        12.5820   -2.2670   -9.5370 C.ar      1 UNK         0.0000
     17 C11         8.5580   -4.9140   -9.3260 C.2       1 UNK         0.0000
     18 C12         6.8520   -5.7390   -7.8920 C.ar      1 UNK         0.0000
     19 C13         6.2790   -5.7200   -6.6030 C.ar      1 UNK         0.0000
     20 C14        11.0820    0.0360   -9.1790 C.ar      1 UNK         0.0000
     21 C15         4.9570   -6.1970   -6.4230 C.ar      1 UNK         0.0000
     22 C16        13.0110   -1.2940   -8.6550 C.ar      1 UNK         0.0000
     23 C17        12.2670   -0.1450   -8.4740 C.ar      1 UNK         0.0000
     24 C18         6.1150   -6.2210   -8.9530 C.ar      1 UNK         0.0000
     25 C19         6.9950   -5.2390   -5.4960 C.ar      1 UNK         0.0000
     26 C20         4.2390   -6.6800   -7.5310 C.ar      1 UNK         0.0000
     27 C21         4.8170   -6.6870   -8.7630 C.ar      1 UNK         0.0000
     28 C22         4.3880   -6.1770   -5.1390 C.ar      1 UNK         0.0000
     29 C23         6.4110   -5.2340   -4.2650 C.ar      1 UNK         0.0000
     30 C24         5.1110   -5.7030   -4.0880 C.ar      1 UNK         0.0000
     31 H1          8.7270   -5.5730  -14.2910 H         1 UNK         0.0000
     32 H2          8.6160   -3.8900  -14.8590 H         1 UNK         0.0000
     33 H3          9.1860   -5.1650  -15.9610 H         1 UNK         0.0000
     34 H4         11.0020   -3.6090  -16.3620 H         1 UNK         0.0000
     35 H5         10.8400   -2.4900  -14.9870 H         1 UNK         0.0000
     36 H6         12.3230   -3.4530  -15.1800 H         1 UNK         0.0000
     37 H7         10.8510   -6.5880  -15.1900 H         1 UNK         0.0000
     38 H8         12.3490   -5.6270  -15.2140 H         1 UNK         0.0000
     39 H9         11.7130   -6.2480  -13.6710 H         1 UNK         0.0000
     40 H10         9.5230   -5.8310  -12.0600 H         1 UNK         0.0000
     41 H11        10.4790   -4.5910   -8.8080 H         1 UNK         0.0000
     42 H12         9.7340   -0.7980  -10.6220 H         1 UNK         0.0000
     43 H13        13.1670   -3.1640   -9.6780 H         1 UNK         0.0000
     44 H14         8.7670   -5.2140   -7.3440 H         1 UNK         0.0000
     45 H15        13.9310   -1.4310   -8.1060 H         1 UNK         0.0000
     46 H16        12.6040    0.6140   -7.7840 H         1 UNK         0.0000
     47 H17         6.5490   -6.2370   -9.9420 H         1 UNK         0.0000
     48 H18         8.0040   -4.8720   -5.6190 H         1 UNK         0.0000
     49 H19         3.2320   -7.0490   -7.4030 H         1 UNK         0.0000
     50 H20         4.2580   -7.0600   -9.6090 H         1 UNK         0.0000
     51 H21         3.3810   -6.5370   -4.9860 H         1 UNK         0.0000
     52 H22         6.9640   -4.8630   -3.4160 H         1 UNK         0.0000
     53 H23         4.6710   -5.6900   -3.1010 H         1 UNK         0.0000
     54 H24        10.1880    1.5480   -8.1020 H         1 UNK         0.0000
     55 H25         9.9490    1.6550   -9.7620 H         1 UNK         0.0000
@<TRIPOS>BOND
     1    1   17 2
     2    2    3 1
     3    2   13 1
     4    2   14 1
     5    3    8 2
     6    4   13 1
     7    4   17 am
     8    4   41 1
     9    5   17 am
    10    5   18 1
    11    5   44 1
    12    6   20 1
    13    6   54 1
    14    6   55 1
    15    7    8 1
    16    7    9 1
    17    7   10 1
    18    7   11 1
    19    8   12 1
    20    9   31 1
    21    9   32 1
    22    9   33 1
    23   10   34 1
    24   10   35 1
    25   10   36 1
    26   11   37 1
    27   11   38 1
    28   11   39 1
    29   12   13 2
    30   12   40 1
    31   14   15 ar
    32   14   16 ar
    33   15   20 ar
    34   15   42 1
    35   16   22 ar
    36   16   43 1
    37   18   19 ar
    38   18   24 ar
    39   19   21 ar
    40   19   25 ar
    41   20   23 ar
    42   21   26 ar
    43   21   28 ar
    44   22   23 ar
    45   22   45 1
    46   23   46 1
    47   24   27 ar
    48   24   47 1
    49   25   29 ar
    50   25   48 1
    51   26   27 ar
    52   26   49 1
    53   27   50 1
    54   28   30 ar
    55   28   51 1
    56   29   30 ar
    57   29   52 1
    58   30   53 1
