@<TRIPOS>MOLECULE
25174101
   55    58     0     0     0
SMALL
NO_CHARGES

@<TRIPOS>ATOM
      1 O1          9.4840   -3.5820   -9.9900 O.2       1 UNK         0.0000
      2 N1          7.2650   -6.0710   -9.7950 N.pl3     1 UNK         0.0000
      3 N2          6.1010   -5.9960   -9.0200 N.2       1 UNK         0.0000
      4 N3          9.6590   -5.7090   -9.3760 N.am      1 UNK         0.0000
      5 N4         11.4770   -4.5270  -10.2410 N.am      1 UNK         0.0000
      6 N5          7.7660   -9.4020  -13.2550 N.pl3     1 UNK         0.0000
      7 C1          5.4870   -5.4540   -6.6500 C.3       1 UNK         0.0000
      8 C2          6.4370   -5.6480   -7.8030 C.2       1 UNK         0.0000
      9 C3          4.4240   -6.5540   -6.6750 C.3       1 UNK         0.0000
     10 C4          6.2610   -5.5220   -5.3330 C.3       1 UNK         0.0000
     11 C5          4.8090   -4.0870   -6.7720 C.3       1 UNK         0.0000
     12 C6          7.8250   -5.4940   -7.7540 C.2       1 UNK         0.0000
     13 C7          8.3190   -5.7540   -8.9950 C.2       1 UNK         0.0000
     14 C8          7.3320   -6.4130  -11.1530 C.ar      1 UNK         0.0000
     15 C9          7.5200   -7.7360  -11.5280 C.ar      1 UNK         0.0000
     16 C10         7.2150   -5.4270  -12.1250 C.ar      1 UNK         0.0000
     17 C11        10.1820   -4.5700   -9.8730 C.2       1 UNK         0.0000
     18 C12        12.0490   -3.3190  -10.6450 C.ar      1 UNK         0.0000
     19 C13        12.2290   -3.0400  -12.0160 C.ar      1 UNK         0.0000
     20 C14         7.5810   -8.0700  -12.8730 C.ar      1 UNK         0.0000
     21 C15        12.8130   -1.8080  -12.4030 C.ar      1 UNK         0.0000
     22 C16         7.2810   -5.7630  -13.4630 C.ar      1 UNK         0.0000
     23 C17         7.4640   -7.0790  -13.8410 C.ar      1 UNK         0.0000
     24 C18        12.4430   -2.3890   -9.7080 C.ar      1 UNK         0.0000
     25 C19        11.8420   -3.9590  -13.0040 C.ar      1 UNK         0.0000
     26 C20        13.2010   -0.8870  -11.4160 C.ar      1 UNK         0.0000
     27 C21        13.0160   -1.1830  -10.1000 C.ar      1 UNK         0.0000
     28 C22        12.9910   -1.5300  -13.7690 C.ar      1 UNK         0.0000
     29 C23        12.0300   -3.6570  -14.3180 C.ar      1 UNK         0.0000
     30 C24        12.6040   -2.4460  -14.6990 C.ar      1 UNK         0.0000
     31 H1          3.5990   -6.2470   -7.3190 H         1 UNK         0.0000
     32 H2          4.8620   -7.4750   -7.0620 H         1 UNK         0.0000
     33 H3          4.0530   -6.7250   -5.6660 H         1 UNK         0.0000
     34 H4          5.5760   -5.7650   -4.5200 H         1 UNK         0.0000
     35 H5          7.0300   -6.2920   -5.4020 H         1 UNK         0.0000
     36 H6          6.7300   -4.5580   -5.1370 H         1 UNK         0.0000
     37 H7          3.7750   -4.2210   -7.0920 H         1 UNK         0.0000
     38 H8          4.8270   -3.5840   -5.8050 H         1 UNK         0.0000
     39 H9          5.3400   -3.4820   -7.5060 H         1 UNK         0.0000
     40 H10         8.4030   -5.2160   -6.8850 H         1 UNK         0.0000
     41 H11        10.2170   -6.4980   -9.2820 H         1 UNK         0.0000
     42 H12         7.6150   -8.5030  -10.7740 H         1 UNK         0.0000
     43 H13         7.0730   -4.3970  -11.8330 H         1 UNK         0.0000
     44 H14        12.0130   -5.3350  -10.2240 H         1 UNK         0.0000
     45 H15         7.1900   -4.9950  -14.2170 H         1 UNK         0.0000
     46 H16         7.5150   -7.3380  -14.8870 H         1 UNK         0.0000
     47 H17        12.3080   -2.5990   -8.6570 H         1 UNK         0.0000
     48 H18        11.3960   -4.9020  -12.7220 H         1 UNK         0.0000
     49 H19        13.6500    0.0530  -11.7010 H         1 UNK         0.0000
     50 H20        13.3180   -0.4690   -9.3470 H         1 UNK         0.0000
     51 H21        13.4340   -0.5950  -14.0800 H         1 UNK         0.0000
     52 H22        11.7300   -4.3650  -15.0750 H         1 UNK         0.0000
     53 H23        12.7430   -2.2300  -15.7490 H         1 UNK         0.0000
     54 H24         8.1030   -9.6090  -14.1400 H         1 UNK         0.0000
     55 H25         7.5580  -10.1170  -12.6330 H         1 UNK         0.0000
@<TRIPOS>BOND
     1    1   17 2
     2    2    3 1
     3    2   13 1
     4    2   14 1
     5    3    8 2
     6    4   13 1
     7    4   17 am
     8    4   41 1
     9    5   17 am
    10    5   18 1
    11    5   44 1
    12    6   20 1
    13    6   54 1
    14    6   55 1
    15    7    8 1
    16    7    9 1
    17    7   10 1
    18    7   11 1
    19    8   12 1
    20    9   31 1
    21    9   32 1
    22    9   33 1
    23   10   34 1
    24   10   35 1
    25   10   36 1
    26   11   37 1
    27   11   38 1
    28   11   39 1
    29   12   13 2
    30   12   40 1
    31   14   15 ar
    32   14   16 ar
    33   15   20 ar
    34   15   42 1
    35   16   22 ar
    36   16   43 1
    37   18   19 ar
    38   18   24 ar
    39   19   21 ar
    40   19   25 ar
    41   20   23 ar
    42   21   26 ar
    43   21   28 ar
    44   22   23 ar
    45   22   45 1
    46   23   46 1
    47   24   27 ar
    48   24   47 1
    49   25   29 ar
    50   25   48 1
    51   26   27 ar
    52   26   49 1
    53   27   50 1
    54   28   30 ar
    55   28   51 1
    56   29   30 ar
    57   29   52 1
    58   30   53 1
