@<TRIPOS>MOLECULE
25174101
   55    58     0     0     0
SMALL
NO_CHARGES

@<TRIPOS>ATOM
      1 O1          7.6200   -5.3470   -9.5540 O.2       1 UNK         0.0000
      2 N1          4.7230   -6.4730   -8.1300 N.pl3     1 UNK         0.0000
      3 N2          4.6450   -6.6930   -6.7500 N.2       1 UNK         0.0000
      4 N3          5.5160   -4.6350   -9.5560 N.am      1 UNK         0.0000
      5 N4          6.9790   -4.1460  -11.3080 N.am      1 UNK         0.0000
      6 N5          5.7840   -9.3510  -11.8580 N.pl3     1 UNK         0.0000
      7 C1          5.2200   -5.4590   -4.6430 C.3       1 UNK         0.0000
      8 C2          5.1190   -5.6380   -6.1360 C.2       1 UNK         0.0000
      9 C3          4.2960   -6.4610   -3.9470 C.3       1 UNK         0.0000
     10 C4          6.6630   -5.6990   -4.1960 C.3       1 UNK         0.0000
     11 C5          4.8010   -4.0350   -4.2710 C.3       1 UNK         0.0000
     12 C6          5.5230   -4.7100   -7.1000 C.2       1 UNK         0.0000
     13 C7          5.2650   -5.2410   -8.3260 C.2       1 UNK         0.0000
     14 C8          4.3150   -7.3650   -9.1320 C.ar      1 UNK         0.0000
     15 C9          5.2510   -7.9110   -9.9990 C.ar      1 UNK         0.0000
     16 C10         2.9730   -7.6980   -9.2620 C.ar      1 UNK         0.0000
     17 C11         6.7370   -4.7310  -10.1190 C.2       1 UNK         0.0000
     18 C12         8.2050   -4.3430  -11.9470 C.ar      1 UNK         0.0000
     19 C13         8.3390   -5.3320  -12.9440 C.ar      1 UNK         0.0000
     20 C14         4.8440   -8.7960  -10.9860 C.ar      1 UNK         0.0000
     21 C15         9.5930   -5.5130  -13.5780 C.ar      1 UNK         0.0000
     22 C16         2.5700   -8.5760  -10.2500 C.ar      1 UNK         0.0000
     23 C17         3.4990   -9.1260  -11.1110 C.ar      1 UNK         0.0000
     24 C18         9.2960   -3.5720  -11.6080 C.ar      1 UNK         0.0000
     25 C19         7.2540   -6.1380  -13.3200 C.ar      1 UNK         0.0000
     26 C20        10.6810   -4.7070  -13.2030 C.ar      1 UNK         0.0000
     27 C21        10.5240   -3.7610  -12.2380 C.ar      1 UNK         0.0000
     28 C22         9.7250   -6.4980  -14.5720 C.ar      1 UNK         0.0000
     29 C23         7.4170   -7.0830  -14.2870 C.ar      1 UNK         0.0000
     30 C24         8.6500   -7.2630  -14.9100 C.ar      1 UNK         0.0000
     31 H1          3.3010   -6.4040   -4.3880 H         1 UNK         0.0000
     32 H2          4.6920   -7.4690   -4.0740 H         1 UNK         0.0000
     33 H3          4.2370   -6.2250   -2.8850 H         1 UNK         0.0000
     34 H4          6.8660   -5.1170   -3.2960 H         1 UNK         0.0000
     35 H5          6.8070   -6.7580   -3.9850 H         1 UNK         0.0000
     36 H6          7.3450   -5.3920   -4.9890 H         1 UNK         0.0000
     37 H7          4.7130   -3.4340   -5.1760 H         1 UNK         0.0000
     38 H8          3.8390   -4.0610   -3.7580 H         1 UNK         0.0000
     39 H9          5.5510   -3.5950   -3.6150 H         1 UNK         0.0000
     40 H10         5.9600   -3.7410   -6.9050 H         1 UNK         0.0000
     41 H11         4.8110   -4.1430  -10.0080 H         1 UNK         0.0000
     42 H12         6.2950   -7.6490   -9.9020 H         1 UNK         0.0000
     43 H13         2.2440   -7.2700   -8.5900 H         1 UNK         0.0000
     44 H14         6.3020   -3.5870  -11.7210 H         1 UNK         0.0000
     45 H15         1.5260   -8.8350  -10.3490 H         1 UNK         0.0000
     46 H16         3.1820   -9.8120  -11.8820 H         1 UNK         0.0000
     47 H17         9.1990   -2.8140  -10.8450 H         1 UNK         0.0000
     48 H18         6.2920   -6.0090  -12.8440 H         1 UNK         0.0000
     49 H19        11.6420   -4.8410  -13.6780 H         1 UNK         0.0000
     50 H20        11.3650   -3.1450  -11.9550 H         1 UNK         0.0000
     51 H21        10.6740   -6.6490  -15.0640 H         1 UNK         0.0000
     52 H22         6.5800   -7.7010  -14.5740 H         1 UNK         0.0000
     53 H23         8.7550   -8.0200  -15.6740 H         1 UNK         0.0000
     54 H24         6.4330   -9.9920  -11.5270 H         1 UNK         0.0000
     55 H25         5.7870   -9.0960  -12.7940 H         1 UNK         0.0000
@<TRIPOS>BOND
     1    1   17 2
     2    2    3 1
     3    2   13 1
     4    2   14 1
     5    3    8 2
     6    4   13 1
     7    4   17 am
     8    4   41 1
     9    5   17 am
    10    5   18 1
    11    5   44 1
    12    6   20 1
    13    6   54 1
    14    6   55 1
    15    7    8 1
    16    7    9 1
    17    7   10 1
    18    7   11 1
    19    8   12 1
    20    9   31 1
    21    9   32 1
    22    9   33 1
    23   10   34 1
    24   10   35 1
    25   10   36 1
    26   11   37 1
    27   11   38 1
    28   11   39 1
    29   12   13 2
    30   12   40 1
    31   14   15 ar
    32   14   16 ar
    33   15   20 ar
    34   15   42 1
    35   16   22 ar
    36   16   43 1
    37   18   19 ar
    38   18   24 ar
    39   19   21 ar
    40   19   25 ar
    41   20   23 ar
    42   21   26 ar
    43   21   28 ar
    44   22   23 ar
    45   22   45 1
    46   23   46 1
    47   24   27 ar
    48   24   47 1
    49   25   29 ar
    50   25   48 1
    51   26   27 ar
    52   26   49 1
    53   27   50 1
    54   28   30 ar
    55   28   51 1
    56   29   30 ar
    57   29   52 1
    58   30   53 1
