@<TRIPOS>MOLECULE
10302451
   70    75     0     0     0
SMALL
NO_CHARGES

@<TRIPOS>ATOM
      1 Cl1         4.8910   -5.9160  -12.8730 Cl        1 UNK         0.0000
      2 O1          6.7780   -6.9090  -10.2900 O.3       1 UNK         0.0000
      3 O2         10.2990   -4.7460  -10.5880 O.3       1 UNK         0.0000
      4 O3          4.7850   -5.8060   -6.1190 O.3       1 UNK         0.0000
      5 O4          5.6530  -11.0400  -13.5510 O.3       1 UNK         0.0000
      6 O5          5.1030  -11.0130  -15.7480 O.3       1 UNK         0.0000
      7 N1          6.2190   -4.1380   -3.5610 N.3       1 UNK         0.0000
      8 N2          6.3130   -1.9780   -1.7080 N.3       1 UNK         0.0000
      9 N3          5.6390   -8.5890  -11.8130 N.pl3     1 UNK         0.0000
     10 N4          2.6690   -8.9550   -8.9960 N.ar      1 UNK         0.0000
     11 N5          3.6170   -9.5120  -11.0330 N.ar      1 UNK         0.0000
     12 C1          7.1730   -4.1490   -2.4430 C.3       1 UNK         0.0000
     13 C2          4.9970   -3.4050   -3.2000 C.3       1 UNK         0.0000
     14 C3          7.5350   -2.7100   -2.0700 C.3       1 UNK         0.0000
     15 C4          5.3590   -1.9660   -2.8270 C.3       1 UNK         0.0000
     16 C5          5.9030   -5.5050   -3.9980 C.3       1 UNK         0.0000
     17 C6          7.8190   -5.9920   -9.9460 C.3       1 UNK         0.0000
     18 C7          9.1510   -6.7410   -9.8510 C.3       1 UNK         0.0000
     19 C8          7.9280   -4.9120  -11.0280 C.3       1 UNK         0.0000
     20 C9          6.0650   -5.6050   -5.5160 C.3       1 UNK         0.0000
     21 C10         6.6280   -0.6120   -1.2720 C.3       1 UNK         0.0000
     22 C11        10.2720   -5.7380   -9.5610 C.3       1 UNK         0.0000
     23 C12         9.0960   -3.9810  -10.6920 C.3       1 UNK         0.0000
     24 C13         5.7730   -7.0650   -9.3900 C.ar      1 UNK         0.0000
     25 C14         4.7540   -6.5130   -7.2780 C.ar      1 UNK         0.0000
     26 C15         4.7140   -7.9480   -9.6600 C.ar      1 UNK         0.0000
     27 C16         5.7830   -6.3580   -8.2080 C.ar      1 UNK         0.0000
     28 C17         3.6690   -8.1040   -8.7160 C.ar      1 UNK         0.0000
     29 C18         3.7070   -7.3790   -7.5200 C.ar      1 UNK         0.0000
     30 C19         4.6510   -8.6980  -10.8560 C.ar      1 UNK         0.0000
     31 C20         5.3000   -8.5800  -13.1720 C.ar      1 UNK         0.0000
     32 C21         2.6630   -9.6260  -10.1240 C.ar      1 UNK         0.0000
     33 C22         5.3370   -9.7600  -13.9080 C.ar      1 UNK         0.0000
     34 C23         4.9940   -9.7440  -15.2550 C.ar      1 UNK         0.0000
     35 C24         4.9310   -7.3900  -13.7880 C.ar      1 UNK         0.0000
     36 C25         4.6270   -8.5520  -15.8620 C.ar      1 UNK         0.0000
     37 C26         4.5960   -7.3810  -15.1290 C.ar      1 UNK         0.0000
     38 C27         5.1150  -11.8750  -14.5940 C.3       1 UNK         0.0000
     39 H1          8.0740   -4.6860   -2.7400 H         1 UNK         0.0000
     40 H2          6.7200   -4.6450   -1.5840 H         1 UNK         0.0000
     41 H3          4.5200   -3.8930   -2.3500 H         1 UNK         0.0000
     42 H4          4.3120   -3.4000   -4.0480 H         1 UNK         0.0000
     43 H5          8.0130   -2.2230   -2.9210 H         1 UNK         0.0000
     44 H6          8.2200   -2.7160   -1.2220 H         1 UNK         0.0000
     45 H7          4.4580   -1.4290   -2.5300 H         1 UNK         0.0000
     46 H8          5.8120   -1.4710   -3.6860 H         1 UNK         0.0000
     47 H9          6.5830   -6.2070   -3.5140 H         1 UNK         0.0000
     48 H10         4.8770   -5.7450   -3.7250 H         1 UNK         0.0000
     49 H11         7.5930   -5.5250   -8.9860 H         1 UNK         0.0000
     50 H12         9.1000   -7.4730   -9.0450 H         1 UNK         0.0000
     51 H13         9.3520   -7.2490  -10.7940 H         1 UNK         0.0000
     52 H14         8.1040   -5.3840  -11.9950 H         1 UNK         0.0000
     53 H15         7.0030   -4.3380  -11.0640 H         1 UNK         0.0000
     54 H16         6.5040   -4.6840   -5.8960 H         1 UNK         0.0000
     55 H17         6.7170   -6.4440   -5.7570 H         1 UNK         0.0000
     56 H18         5.7200   -0.0100   -1.2790 H         1 UNK         0.0000
     57 H19         7.0370   -0.6390   -0.2610 H         1 UNK         0.0000
     58 H20         7.3620   -0.1730   -1.9480 H         1 UNK         0.0000
     59 H21        10.0920   -5.2600   -8.5970 H         1 UNK         0.0000
     60 H22        11.2280   -6.2600   -9.5340 H         1 UNK         0.0000
     61 H23         8.9000   -3.4800   -9.7450 H         1 UNK         0.0000
     62 H24         9.2050   -3.2370  -11.4820 H         1 UNK         0.0000
     63 H25         6.5960   -5.6780   -7.9980 H         1 UNK         0.0000
     64 H26         2.9180   -7.4940   -6.7910 H         1 UNK         0.0000
     65 H27         6.5690   -8.5210  -11.5440 H         1 UNK         0.0000
     66 H28         1.8430  -10.3020  -10.3180 H         1 UNK         0.0000
     67 H29         4.3660   -8.5400  -16.9090 H         1 UNK         0.0000
     68 H30         4.3090   -6.4550  -15.6060 H         1 UNK         0.0000
     69 H31         4.1030  -12.1940  -14.3450 H         1 UNK         0.0000
     70 H32         5.7580  -12.7370  -14.7660 H         1 UNK         0.0000
@<TRIPOS>BOND
     1    1   35 1
     2    2   17 1
     3    2   24 1
     4    3   22 1
     5    3   23 1
     6    4   20 1
     7    4   25 1
     8    5   33 1
     9    5   38 1
    10    6   34 1
    11    6   38 1
    12    7   12 1
    13    7   13 1
    14    7   16 1
    15    8   14 1
    16    8   15 1
    17    8   21 1
    18    9   30 1
    19    9   31 1
    20    9   65 1
    21   10   28 ar
    22   10   32 ar
    23   11   30 ar
    24   11   32 ar
    25   12   14 1
    26   12   39 1
    27   12   40 1
    28   13   15 1
    29   13   41 1
    30   13   42 1
    31   14   43 1
    32   14   44 1
    33   15   45 1
    34   15   46 1
    35   16   20 1
    36   16   47 1
    37   16   48 1
    38   17   18 1
    39   17   19 1
    40   17   49 1
    41   18   22 1
    42   18   50 1
    43   18   51 1
    44   19   23 1
    45   19   52 1
    46   19   53 1
    47   20   54 1
    48   20   55 1
    49   21   56 1
    50   21   57 1
    51   21   58 1
    52   22   59 1
    53   22   60 1
    54   23   61 1
    55   23   62 1
    56   24   26 ar
    57   24   27 ar
    58   25   27 ar
    59   25   29 ar
    60   26   28 ar
    61   26   30 ar
    62   27   63 1
    63   28   29 ar
    64   29   64 1
    65   31   33 ar
    66   31   35 ar
    67   32   66 1
    68   33   34 ar
    69   34   36 ar
    70   35   37 ar
    71   36   37 ar
    72   36   67 1
    73   37   68 1
    74   38   69 1
    75   38   70 1
