@<TRIPOS>MOLECULE
10302451
   70    75     0     0     0
SMALL
NO_CHARGES

@<TRIPOS>ATOM
      1 Cl1        11.0730   -7.5490   -8.0380 Cl        1 UNK         0.0000
      2 O1          6.7710   -5.3950   -7.8470 O.3       1 UNK         0.0000
      3 O2          5.9470   -4.3280   -3.9290 O.3       1 UNK         0.0000
      4 O3          2.8630   -7.3840   -9.6760 O.3       1 UNK         0.0000
      5 O4          9.7030   -3.1190  -10.4450 O.3       1 UNK         0.0000
      6 O5         11.8350   -2.4560  -10.8270 O.3       1 UNK         0.0000
      7 N1          2.1530  -10.5540   -8.1750 N.3       1 UNK         0.0000
      8 N2         -0.4170  -11.7730   -8.0490 N.3       1 UNK         0.0000
      9 N3          8.9930   -5.6780   -9.0410 N.pl3     1 UNK         0.0000
     10 N4          7.0430   -7.9000  -11.8950 N.ar      1 UNK         0.0000
     11 N5          8.9640   -6.9430  -11.0280 N.ar      1 UNK         0.0000
     12 C1          1.5490  -11.1570   -9.3710 C.3       1 UNK         0.0000
     13 C2          1.1180  -10.0320   -7.2710 C.3       1 UNK         0.0000
     14 C3          0.6180  -12.2960   -8.9510 C.3       1 UNK         0.0000
     15 C4          0.1870  -11.1710   -6.8520 C.3       1 UNK         0.0000
     16 C5          3.1120   -9.5030   -8.5410 C.3       1 UNK         0.0000
     17 C6          6.1800   -5.4300   -6.5460 C.3       1 UNK         0.0000
     18 C7          7.2750   -5.6090   -5.4900 C.3       1 UNK         0.0000
     19 C8          5.4420   -4.1130   -6.2840 C.3       1 UNK         0.0000
     20 C9          2.4010   -8.1480   -8.5600 C.3       1 UNK         0.0000
     21 C10        -1.3760  -12.8230   -7.6820 C.3       1 UNK         0.0000
     22 C11         6.6410   -5.5650   -4.0970 C.3       1 UNK         0.0000
     23 C12         4.8800   -4.1280   -4.8590 C.3       1 UNK         0.0000
     24 C13         6.1730   -6.1350   -8.8150 C.ar      1 UNK         0.0000
     25 C14         4.1980   -7.1480   -9.7510 C.ar      1 UNK         0.0000
     26 C15         6.9310   -6.6480   -9.8810 C.ar      1 UNK         0.0000
     27 C16         4.8200   -6.3870   -8.7600 C.ar      1 UNK         0.0000
     28 C17         6.2980   -7.4200  -10.8870 C.ar      1 UNK         0.0000
     29 C18         4.9230   -7.6670  -10.8050 C.ar      1 UNK         0.0000
     30 C19         8.3210   -6.4210   -9.9890 C.ar      1 UNK         0.0000
     31 C20        10.3090   -5.2620   -9.2800 C.ar      1 UNK         0.0000
     32 C21         8.3320   -7.6570  -11.9450 C.ar      1 UNK         0.0000
     33 C22        10.5520   -4.0630   -9.9430 C.ar      1 UNK         0.0000
     34 C23        11.8600   -3.6540  -10.1720 C.ar      1 UNK         0.0000
     35 C24        11.3740   -6.0500   -8.8590 C.ar      1 UNK         0.0000
     36 C25        12.9180   -4.4460   -9.7480 C.ar      1 UNK         0.0000
     37 C26        12.6730   -5.6390   -9.0950 C.ar      1 UNK         0.0000
     38 C27        10.5060   -1.9380  -10.6290 C.3       1 UNK         0.0000
     39 H1          2.3350  -11.5480  -10.0180 H         1 UNK         0.0000
     40 H2          0.9780  -10.4000   -9.9100 H         1 UNK         0.0000
     41 H3          0.5420   -9.2620   -7.7860 H         1 UNK         0.0000
     42 H4          1.5890   -9.6020   -6.3870 H         1 UNK         0.0000
     43 H5          1.1950  -13.0650   -8.4360 H         1 UNK         0.0000
     44 H6          0.1470  -12.7250   -9.8350 H         1 UNK         0.0000
     45 H7         -0.5990  -10.7800   -6.2050 H         1 UNK         0.0000
     46 H8          0.7580  -11.9270   -6.3130 H         1 UNK         0.0000
     47 H9          3.9200   -9.4780   -7.8090 H         1 UNK         0.0000
     48 H10         3.5210   -9.7130   -9.5280 H         1 UNK         0.0000
     49 H11         5.4760   -6.2610   -6.4870 H         1 UNK         0.0000
     50 H12         7.7680   -6.5690   -5.6360 H         1 UNK         0.0000
     51 H13         8.0060   -4.8050   -5.5830 H         1 UNK         0.0000
     52 H14         6.1370   -3.2790   -6.3920 H         1 UNK         0.0000
     53 H15         4.6260   -4.0050   -6.9960 H         1 UNK         0.0000
     54 H16         1.3260   -8.3030   -8.6460 H         1 UNK         0.0000
     55 H17         2.6180   -7.6110   -7.6370 H         1 UNK         0.0000
     56 H18        -0.9410  -13.4590   -6.9120 H         1 UNK         0.0000
     57 H19        -2.2890  -12.3650   -7.3020 H         1 UNK         0.0000
     58 H20        -1.6110  -13.4240   -8.5610 H         1 UNK         0.0000
     59 H21         5.9410   -6.3940   -3.9900 H         1 UNK         0.0000
     60 H22         7.4210   -5.6500   -3.3400 H         1 UNK         0.0000
     61 H23         4.1560   -4.9370   -4.7630 H         1 UNK         0.0000
     62 H24         4.3910   -3.1750   -4.6520 H         1 UNK         0.0000
     63 H25         4.2350   -5.9930   -7.9420 H         1 UNK         0.0000
     64 H26         4.4320   -8.2570  -11.5630 H         1 UNK         0.0000
     65 H27         8.5540   -5.4460   -8.2070 H         1 UNK         0.0000
     66 H28         8.9020   -8.0580  -12.7700 H         1 UNK         0.0000
     67 H29        13.9330   -4.1310   -9.9310 H         1 UNK         0.0000
     68 H30        13.4990   -6.2520   -8.7670 H         1 UNK         0.0000
     69 H31        10.4690   -1.3090   -9.7400 H         1 UNK         0.0000
     70 H32        10.1770   -1.3810  -11.5060 H         1 UNK         0.0000
@<TRIPOS>BOND
     1    1   35 1
     2    2   17 1
     3    2   24 1
     4    3   22 1
     5    3   23 1
     6    4   20 1
     7    4   25 1
     8    5   33 1
     9    5   38 1
    10    6   34 1
    11    6   38 1
    12    7   12 1
    13    7   13 1
    14    7   16 1
    15    8   14 1
    16    8   15 1
    17    8   21 1
    18    9   30 1
    19    9   31 1
    20    9   65 1
    21   10   28 ar
    22   10   32 ar
    23   11   30 ar
    24   11   32 ar
    25   12   14 1
    26   12   39 1
    27   12   40 1
    28   13   15 1
    29   13   41 1
    30   13   42 1
    31   14   43 1
    32   14   44 1
    33   15   45 1
    34   15   46 1
    35   16   20 1
    36   16   47 1
    37   16   48 1
    38   17   18 1
    39   17   19 1
    40   17   49 1
    41   18   22 1
    42   18   50 1
    43   18   51 1
    44   19   23 1
    45   19   52 1
    46   19   53 1
    47   20   54 1
    48   20   55 1
    49   21   56 1
    50   21   57 1
    51   21   58 1
    52   22   59 1
    53   22   60 1
    54   23   61 1
    55   23   62 1
    56   24   26 ar
    57   24   27 ar
    58   25   27 ar
    59   25   29 ar
    60   26   28 ar
    61   26   30 ar
    62   27   63 1
    63   28   29 ar
    64   29   64 1
    65   31   33 ar
    66   31   35 ar
    67   32   66 1
    68   33   34 ar
    69   34   36 ar
    70   35   37 ar
    71   36   37 ar
    72   36   67 1
    73   37   68 1
    74   38   69 1
    75   38   70 1
