@<TRIPOS>MOLECULE
10302451
   70    75     0     0     0
SMALL
NO_CHARGES

@<TRIPOS>ATOM
      1 Cl1         6.7360   -8.7450  -10.0540 Cl        1 UNK         0.0000
      2 O1          5.9110   -5.3620   -9.2050 O.3       1 UNK         0.0000
      3 O2         10.0180   -5.1900   -9.7210 O.3       1 UNK         0.0000
      4 O3          4.8140   -5.9010   -4.6130 O.3       1 UNK         0.0000
      5 O4          3.8750   -6.5340  -13.8250 O.3       1 UNK         0.0000
      6 O5          4.7190   -7.8350  -15.4760 O.3       1 UNK         0.0000
      7 N1          6.4970   -3.0710   -2.9840 N.3       1 UNK         0.0000
      8 N2          5.8770   -1.1800   -0.9470 N.3       1 UNK         0.0000
      9 N3          4.7100   -6.7620  -10.9480 N.pl3     1 UNK         0.0000
     10 N4          2.5760   -8.5140   -7.9050 N.ar      1 UNK         0.0000
     11 N5          3.0900   -8.2740  -10.1490 N.ar      1 UNK         0.0000
     12 C1          7.0710   -3.2030   -1.6380 C.3       1 UNK         0.0000
     13 C2          5.1740   -2.4340   -2.9290 C.3       1 UNK         0.0000
     14 C3          7.2010   -1.8170   -1.0030 C.3       1 UNK         0.0000
     15 C4          5.3030   -1.0480   -2.2940 C.3       1 UNK         0.0000
     16 C5          6.4260   -4.3750   -3.6560 C.3       1 UNK         0.0000
     17 C6          7.2580   -5.8070   -9.3770 C.3       1 UNK         0.0000
     18 C7          7.8100   -5.2700  -10.7000 C.3       1 UNK         0.0000
     19 C8          8.1210   -5.2820   -8.2250 C.3       1 UNK         0.0000
     20 C9          5.0670   -4.5200   -4.3450 C.3       1 UNK         0.0000
     21 C10         5.9480    0.1240   -0.2750 C.3       1 UNK         0.0000
     22 C11         9.2780   -5.6840  -10.8380 C.3       1 UNK         0.0000
     23 C12         9.5770   -5.6960   -8.4590 C.3       1 UNK         0.0000
     24 C13         5.1810   -5.9700   -8.2350 C.ar      1 UNK         0.0000
     25 C14         4.6170   -6.2510   -5.9100 C.ar      1 UNK         0.0000
     26 C15         4.2330   -6.9510   -8.5740 C.ar      1 UNK         0.0000
     27 C16         5.3630   -5.6310   -6.9130 C.ar      1 UNK         0.0000
     28 C17         3.4760   -7.5800   -7.5550 C.ar      1 UNK         0.0000
     29 C18         3.6840   -7.2210   -6.2190 C.ar      1 UNK         0.0000
     30 C19         4.0030   -7.3390   -9.9130 C.ar      1 UNK         0.0000
     31 C20         5.2280   -7.5630  -11.9740 C.ar      1 UNK         0.0000
     32 C21         2.4050   -8.8350   -9.1660 C.ar      1 UNK         0.0000
     33 C22         4.7830   -7.3960  -13.2820 C.ar      1 UNK         0.0000
     34 C23         5.3060   -8.1920  -14.2950 C.ar      1 UNK         0.0000
     35 C24         6.1850   -8.5300  -11.6850 C.ar      1 UNK         0.0000
     36 C25         6.2600   -9.1540  -13.9990 C.ar      1 UNK         0.0000
     37 C26         6.6960   -9.3200  -12.6980 C.ar      1 UNK         0.0000
     38 C27         4.1390   -6.5380  -15.2410 C.3       1 UNK         0.0000
     39 H1          8.0560   -3.6650   -1.7060 H         1 UNK         0.0000
     40 H2          6.4200   -3.8250   -1.0240 H         1 UNK         0.0000
     41 H3          4.5000   -3.0470   -2.3300 H         1 UNK         0.0000
     42 H4          4.7750   -2.3360   -3.9390 H         1 UNK         0.0000
     43 H5          7.8750   -1.2040   -1.6030 H         1 UNK         0.0000
     44 H6          7.6000   -1.9150    0.0070 H         1 UNK         0.0000
     45 H7          4.3180   -0.5850   -2.2260 H         1 UNK         0.0000
     46 H8          5.9550   -0.4260   -2.9080 H         1 UNK         0.0000
     47 H9          7.2190   -4.4430   -4.4010 H         1 UNK         0.0000
     48 H10         6.5470   -5.1700   -2.9220 H         1 UNK         0.0000
     49 H11         7.2850   -6.8970   -9.3850 H         1 UNK         0.0000
     50 H12         7.2360   -5.6840  -11.5290 H         1 UNK         0.0000
     51 H13         7.7370   -4.1820  -10.7120 H         1 UNK         0.0000
     52 H14         8.0540   -4.1940   -8.1870 H         1 UNK         0.0000
     53 H15         7.7690   -5.7030   -7.2840 H         1 UNK         0.0000
     54 H16         4.2870   -4.1270   -3.6950 H         1 UNK         0.0000
     55 H17         5.0740   -3.9630   -5.2820 H         1 UNK         0.0000
     56 H18         6.9350    0.5580   -0.4280 H         1 UNK         0.0000
     57 H19         5.1910    0.7880   -0.6910 H         1 UNK         0.0000
     58 H20         5.7690   -0.0070    0.7920 H         1 UNK         0.0000
     59 H21         9.3470   -6.7720  -10.8680 H         1 UNK         0.0000
     60 H22         9.6890   -5.2690  -11.7580 H         1 UNK         0.0000
     61 H23         9.6500   -6.7830   -8.4570 H         1 UNK         0.0000
     62 H24        10.2030   -5.2880   -7.6640 H         1 UNK         0.0000
     63 H25         6.0910   -4.8770   -6.6490 H         1 UNK         0.0000
     64 H26         3.1160   -7.6970   -5.4350 H         1 UNK         0.0000
     65 H27         4.8500   -5.8020  -10.9650 H         1 UNK         0.0000
     66 H28         1.6730   -9.5890   -9.4120 H         1 UNK         0.0000
     67 H29         6.6620   -9.7740  -14.7850 H         1 UNK         0.0000
     68 H30         7.4390  -10.0710  -12.4710 H         1 UNK         0.0000
     69 H31         4.8460   -5.7500  -15.5010 H         1 UNK         0.0000
     70 H32         3.2140   -6.4240  -15.8050 H         1 UNK         0.0000
@<TRIPOS>BOND
     1    1   35 1
     2    2   17 1
     3    2   24 1
     4    3   22 1
     5    3   23 1
     6    4   20 1
     7    4   25 1
     8    5   33 1
     9    5   38 1
    10    6   34 1
    11    6   38 1
    12    7   12 1
    13    7   13 1
    14    7   16 1
    15    8   14 1
    16    8   15 1
    17    8   21 1
    18    9   30 1
    19    9   31 1
    20    9   65 1
    21   10   28 ar
    22   10   32 ar
    23   11   30 ar
    24   11   32 ar
    25   12   14 1
    26   12   39 1
    27   12   40 1
    28   13   15 1
    29   13   41 1
    30   13   42 1
    31   14   43 1
    32   14   44 1
    33   15   45 1
    34   15   46 1
    35   16   20 1
    36   16   47 1
    37   16   48 1
    38   17   18 1
    39   17   19 1
    40   17   49 1
    41   18   22 1
    42   18   50 1
    43   18   51 1
    44   19   23 1
    45   19   52 1
    46   19   53 1
    47   20   54 1
    48   20   55 1
    49   21   56 1
    50   21   57 1
    51   21   58 1
    52   22   59 1
    53   22   60 1
    54   23   61 1
    55   23   62 1
    56   24   26 ar
    57   24   27 ar
    58   25   27 ar
    59   25   29 ar
    60   26   28 ar
    61   26   30 ar
    62   27   63 1
    63   28   29 ar
    64   29   64 1
    65   31   33 ar
    66   31   35 ar
    67   32   66 1
    68   33   34 ar
    69   34   36 ar
    70   35   37 ar
    71   36   37 ar
    72   36   67 1
    73   37   68 1
    74   38   69 1
    75   38   70 1
