@<TRIPOS>MOLECULE
25174101
   55    58     0     0     0
SMALL
NO_CHARGES

@<TRIPOS>ATOM
      1 O1          5.0910   -7.9050  -10.5360 O.2       1 UNK         0.0000
      2 N1          7.4210   -6.4780  -12.5380 N.pl3     1 UNK         0.0000
      3 N2          7.8510   -7.0970  -13.7180 N.2       1 UNK         0.0000
      4 N3          5.2340   -5.9370  -11.5550 N.am      1 UNK         0.0000
      5 N4          3.9800   -6.2220   -9.6060 N.am      1 UNK         0.0000
      6 N5          9.5750   -2.7290  -10.3900 N.pl3     1 UNK         0.0000
      7 C1          6.8100   -8.1360  -15.7490 C.3       1 UNK         0.0000
      8 C2          6.7950   -7.4410  -14.4120 C.2       1 UNK         0.0000
      9 C3          8.2560   -8.4100  -16.1650 C.3       1 UNK         0.0000
     10 C4          6.0490   -9.4580  -15.6450 C.3       1 UNK         0.0000
     11 C5          6.1390   -7.2430  -16.7950 C.3       1 UNK         0.0000
     12 C6          5.6540   -7.0620  -13.6990 C.2       1 UNK         0.0000
     13 C7          6.0610   -6.4630  -12.5470 C.2       1 UNK         0.0000
     14 C8          8.2460   -5.9660  -11.5260 C.ar      1 UNK         0.0000
     15 C9          8.5040   -4.6040  -11.4640 C.ar      1 UNK         0.0000
     16 C10         8.8100   -6.8220  -10.5890 C.ar      1 UNK         0.0000
     17 C11         4.7790   -6.7310  -10.5650 C.2       1 UNK         0.0000
     18 C12         3.6050   -7.0120   -8.5180 C.ar      1 UNK         0.0000
     19 C13         3.9970   -6.6570   -7.2100 C.ar      1 UNK         0.0000
     20 C14         9.3170   -4.1000  -10.4590 C.ar      1 UNK         0.0000
     21 C15         3.6050   -7.4740   -6.1210 C.ar      1 UNK         0.0000
     22 C16         9.6240   -6.3180   -9.5920 C.ar      1 UNK         0.0000
     23 C17         9.8790   -4.9620   -9.5240 C.ar      1 UNK         0.0000
     24 C18         2.8470   -8.1460   -8.7120 C.ar      1 UNK         0.0000
     25 C19         4.7690   -5.5100   -6.9680 C.ar      1 UNK         0.0000
     26 C20         2.8320   -8.6230   -6.3620 C.ar      1 UNK         0.0000
     27 C21         2.4680   -8.9420   -7.6340 C.ar      1 UNK         0.0000
     28 C22         3.9960   -7.1200   -4.8190 C.ar      1 UNK         0.0000
     29 C23         5.1300   -5.1960   -5.6930 C.ar      1 UNK         0.0000
     30 C24         4.7450   -6.0000   -4.6220 C.ar      1 UNK         0.0000
     31 H1          8.9260   -8.1430  -15.3470 H         1 UNK         0.0000
     32 H2          8.3730   -9.4690  -16.3990 H         1 UNK         0.0000
     33 H3          8.5010   -7.8150  -17.0440 H         1 UNK         0.0000
     34 H4          6.7510  -10.2890  -15.7300 H         1 UNK         0.0000
     35 H5          5.5380   -9.5100  -14.6840 H         1 UNK         0.0000
     36 H6          5.3160   -9.5190  -16.4490 H         1 UNK         0.0000
     37 H7          5.4620   -7.8420  -17.4040 H         1 UNK         0.0000
     38 H8          5.5750   -6.4560  -16.2930 H         1 UNK         0.0000
     39 H9          6.9000   -6.7940  -17.4320 H         1 UNK         0.0000
     40 H10         4.6310   -7.2150  -14.0100 H         1 UNK         0.0000
     41 H11         4.9850   -4.9990  -11.5770 H         1 UNK         0.0000
     42 H12         8.0690   -3.9380  -12.1950 H         1 UNK         0.0000
     43 H13         8.6130   -7.8820  -10.6400 H         1 UNK         0.0000
     44 H14         3.6660   -5.3070   -9.6720 H         1 UNK         0.0000
     45 H15        10.0610   -6.9850   -8.8640 H         1 UNK         0.0000
     46 H16        10.5140   -4.5710   -8.7440 H         1 UNK         0.0000
     47 H17         2.5440   -8.4220   -9.7120 H         1 UNK         0.0000
     48 H18         5.0750   -4.8780   -7.7900 H         1 UNK         0.0000
     49 H19         2.5320   -9.2540   -5.5390 H         1 UNK         0.0000
     50 H20         1.8750   -9.8270   -7.8110 H         1 UNK         0.0000
     51 H21         3.7050   -7.7320   -3.9790 H         1 UNK         0.0000
     52 H22         5.7230   -4.3130   -5.5100 H         1 UNK         0.0000
     53 H23         5.0450   -5.7300   -3.6200 H         1 UNK         0.0000
     54 H24         9.8780   -2.2530  -11.1790 H         1 UNK         0.0000
     55 H25         9.4510   -2.2530   -9.5540 H         1 UNK         0.0000
@<TRIPOS>BOND
     1    1   17 2
     2    2    3 1
     3    2   13 1
     4    2   14 1
     5    3    8 2
     6    4   13 1
     7    4   17 am
     8    4   41 1
     9    5   17 am
    10    5   18 1
    11    5   44 1
    12    6   20 1
    13    6   54 1
    14    6   55 1
    15    7    8 1
    16    7    9 1
    17    7   10 1
    18    7   11 1
    19    8   12 1
    20    9   31 1
    21    9   32 1
    22    9   33 1
    23   10   34 1
    24   10   35 1
    25   10   36 1
    26   11   37 1
    27   11   38 1
    28   11   39 1
    29   12   13 2
    30   12   40 1
    31   14   15 ar
    32   14   16 ar
    33   15   20 ar
    34   15   42 1
    35   16   22 ar
    36   16   43 1
    37   18   19 ar
    38   18   24 ar
    39   19   21 ar
    40   19   25 ar
    41   20   23 ar
    42   21   26 ar
    43   21   28 ar
    44   22   23 ar
    45   22   45 1
    46   23   46 1
    47   24   27 ar
    48   24   47 1
    49   25   29 ar
    50   25   48 1
    51   26   27 ar
    52   26   49 1
    53   27   50 1
    54   28   30 ar
    55   28   51 1
    56   29   30 ar
    57   29   52 1
    58   30   53 1
