@<TRIPOS>MOLECULE
25174101
   55    58     0     0     0
SMALL
NO_CHARGES

@<TRIPOS>ATOM
      1 O1          8.2540   -5.3240   -9.9140 O.2       1 UNK         0.0000
      2 N1         10.2200   -3.7670  -12.3130 N.pl3     1 UNK         0.0000
      3 N2         11.4120   -3.1470  -11.9210 N.2       1 UNK         0.0000
      4 N3          7.9090   -3.7810  -11.4740 N.am      1 UNK         0.0000
      5 N4          6.1850   -5.1520  -10.7020 N.am      1 UNK         0.0000
      6 N5         10.3210   -4.5370  -17.0780 N.pl3     1 UNK         0.0000
      7 C1         12.1810   -1.5910  -10.1110 C.3       1 UNK         0.0000
      8 C2         11.1710   -2.4240  -10.8560 C.2       1 UNK         0.0000
      9 C3         13.0300   -2.4980   -9.2170 C.3       1 UNK         0.0000
     10 C4         13.0850   -0.8690  -11.1100 C.3       1 UNK         0.0000
     11 C5         11.4530   -0.5600   -9.2450 C.3       1 UNK         0.0000
     12 C6          9.8170   -2.5500  -10.5340 C.2       1 UNK         0.0000
     13 C7          9.2470   -3.3880  -11.4410 C.2       1 UNK         0.0000
     14 C8         10.0580   -4.6250  -13.4100 C.ar      1 UNK         0.0000
     15 C9         10.2650   -4.1530  -14.6980 C.ar      1 UNK         0.0000
     16 C10         9.6830   -5.9480  -13.2080 C.ar      1 UNK         0.0000
     17 C11         7.4770   -4.7730  -10.6700 C.2       1 UNK         0.0000
     18 C12         5.7110   -6.0960   -9.7890 C.ar      1 UNK         0.0000
     19 C13         5.3850   -5.7110   -8.4710 C.ar      1 UNK         0.0000
     20 C14        10.1080   -5.0070  -15.7800 C.ar      1 UNK         0.0000
     21 C15         4.9060   -6.6860   -7.5610 C.ar      1 UNK         0.0000
     22 C16         9.5220   -6.7940  -14.2880 C.ar      1 UNK         0.0000
     23 C17         9.7330   -6.3300  -15.5720 C.ar      1 UNK         0.0000
     24 C18         5.5570   -7.4120  -10.1670 C.ar      1 UNK         0.0000
     25 C19         5.5260   -4.3820   -8.0440 C.ar      1 UNK         0.0000
     26 C20         4.7640   -8.0180   -7.9870 C.ar      1 UNK         0.0000
     27 C21         5.0860   -8.3610   -9.2640 C.ar      1 UNK         0.0000
     28 C22         4.5820   -6.3030   -6.2490 C.ar      1 UNK         0.0000
     29 C23         5.2020   -4.0450   -6.7650 C.ar      1 UNK         0.0000
     30 C24         4.7320   -5.0040   -5.8700 C.ar      1 UNK         0.0000
     31 H1         12.5600   -2.5850   -8.2380 H         1 UNK         0.0000
     32 H2         13.1070   -3.4870   -9.6720 H         1 UNK         0.0000
     33 H3         14.0260   -2.0720   -9.1060 H         1 UNK         0.0000
     34 H4         12.8950   -1.2500  -12.1140 H         1 UNK         0.0000
     35 H5         12.8780    0.2010  -11.0820 H         1 UNK         0.0000
     36 H6         14.1290   -1.0430  -10.8480 H         1 UNK         0.0000
     37 H7         11.0930   -1.0390   -8.3350 H         1 UNK         0.0000
     38 H8         12.1400    0.2450   -8.9830 H         1 UNK         0.0000
     39 H9         10.6080   -0.1520   -9.7990 H         1 UNK         0.0000
     40 H10         9.3130   -2.0680   -9.7080 H         1 UNK         0.0000
     41 H11         7.2890   -3.3410  -12.0770 H         1 UNK         0.0000
     42 H12        10.5520   -3.1240  -14.8570 H         1 UNK         0.0000
     43 H13         9.5170   -6.3140  -12.2060 H         1 UNK         0.0000
     44 H14         5.5840   -4.7700  -11.3600 H         1 UNK         0.0000
     45 H15         9.2310   -7.8220  -14.1290 H         1 UNK         0.0000
     46 H16         9.6070   -6.9930  -16.4140 H         1 UNK         0.0000
     47 H17         5.8060   -7.7110  -11.1750 H         1 UNK         0.0000
     48 H18         5.8900   -3.6280   -8.7280 H         1 UNK         0.0000
     49 H19         4.4040   -8.7690   -7.2990 H         1 UNK         0.0000
     50 H20         4.9750   -9.3870   -9.5830 H         1 UNK         0.0000
     51 H21         4.2150   -7.0340   -5.5440 H         1 UNK         0.0000
     52 H22         5.3110   -3.0220   -6.4410 H         1 UNK         0.0000
     53 H23         4.4820   -4.7110   -4.8610 H         1 UNK         0.0000
     54 H24        10.3630   -5.1620  -17.8190 H         1 UNK         0.0000
     55 H25        10.4260   -3.5860  -17.2380 H         1 UNK         0.0000
@<TRIPOS>BOND
     1    1   17 2
     2    2    3 1
     3    2   13 1
     4    2   14 1
     5    3    8 2
     6    4   13 1
     7    4   17 am
     8    4   41 1
     9    5   17 am
    10    5   18 1
    11    5   44 1
    12    6   20 1
    13    6   54 1
    14    6   55 1
    15    7    8 1
    16    7    9 1
    17    7   10 1
    18    7   11 1
    19    8   12 1
    20    9   31 1
    21    9   32 1
    22    9   33 1
    23   10   34 1
    24   10   35 1
    25   10   36 1
    26   11   37 1
    27   11   38 1
    28   11   39 1
    29   12   13 2
    30   12   40 1
    31   14   15 ar
    32   14   16 ar
    33   15   20 ar
    34   15   42 1
    35   16   22 ar
    36   16   43 1
    37   18   19 ar
    38   18   24 ar
    39   19   21 ar
    40   19   25 ar
    41   20   23 ar
    42   21   26 ar
    43   21   28 ar
    44   22   23 ar
    45   22   45 1
    46   23   46 1
    47   24   27 ar
    48   24   47 1
    49   25   29 ar
    50   25   48 1
    51   26   27 ar
    52   26   49 1
    53   27   50 1
    54   28   30 ar
    55   28   51 1
    56   29   30 ar
    57   29   52 1
    58   30   53 1
