@<TRIPOS>MOLECULE
25174101
   55    58     0     0     0
SMALL
NO_CHARGES

@<TRIPOS>ATOM
      1 O1          7.3660   -6.0270   -9.3230 O.2       1 UNK         0.0000
      2 N1          9.0570   -5.1120  -11.9150 N.pl3     1 UNK         0.0000
      3 N2         10.4480   -4.9740  -11.9990 N.2       1 UNK         0.0000
      4 N3          7.2970   -4.1440  -10.4980 N.am      1 UNK         0.0000
      5 N4          5.4490   -4.9060   -9.2920 N.am      1 UNK         0.0000
      6 N5          7.5920   -9.5140  -13.2510 N.pl3     1 UNK         0.0000
      7 C1         12.2550   -3.6850  -10.8330 C.3       1 UNK         0.0000
      8 C2         10.8350   -4.1200  -11.0850 C.2       1 UNK         0.0000
      9 C3         12.9970   -3.5700  -12.1660 C.3       1 UNK         0.0000
     10 C4         12.2560   -2.3270  -10.1290 C.3       1 UNK         0.0000
     11 C5         12.9550   -4.7180   -9.9470 C.3       1 UNK         0.0000
     12 C6          9.7070   -3.6760  -10.3890 C.2       1 UNK         0.0000
     13 C7          8.6190   -4.3040  -10.9120 C.2       1 UNK         0.0000
     14 C8          8.2590   -5.9340  -12.7220 C.ar      1 UNK         0.0000
     15 C9          8.3260   -7.3140  -12.5890 C.ar      1 UNK         0.0000
     16 C10         7.4040   -5.3690  -13.6600 C.ar      1 UNK         0.0000
     17 C11         6.7260   -5.0610   -9.6910 C.2       1 UNK         0.0000
     18 C12         4.8950   -5.7900   -8.3640 C.ar      1 UNK         0.0000
     19 C13         4.9260   -5.4890   -6.9860 C.ar      1 UNK         0.0000
     20 C14         7.5300   -8.1240  -13.3850 C.ar      1 UNK         0.0000
     21 C15         4.3580   -6.4010   -6.0630 C.ar      1 UNK         0.0000
     22 C16         6.6160   -6.1790  -14.4560 C.ar      1 UNK         0.0000
     23 C17         6.6760   -7.5530  -14.3220 C.ar      1 UNK         0.0000
     24 C18         4.3120   -6.9650   -8.7870 C.ar      1 UNK         0.0000
     25 C19         5.5100   -4.3030   -6.5130 C.ar      1 UNK         0.0000
     26 C20         3.7740   -7.5890   -6.5350 C.ar      1 UNK         0.0000
     27 C21         3.7580   -7.8540   -7.8700 C.ar      1 UNK         0.0000
     28 C22         4.3900   -6.1000   -4.6910 C.ar      1 UNK         0.0000
     29 C23         5.5220   -4.0440   -5.1760 C.ar      1 UNK         0.0000
     30 C24         4.9640   -4.9410   -4.2680 C.ar      1 UNK         0.0000
     31 H1         14.0650   -3.7080  -12.0000 H         1 UNK         0.0000
     32 H2         12.6340   -4.3360  -12.8510 H         1 UNK         0.0000
     33 H3         12.8210   -2.5850  -12.5970 H         1 UNK         0.0000
     34 H4         13.2320   -1.8550  -10.2490 H         1 UNK         0.0000
     35 H5         11.4870   -1.6900  -10.5670 H         1 UNK         0.0000
     36 H6         12.0480   -2.4670   -9.0680 H         1 UNK         0.0000
     37 H7         12.2240   -5.1870   -9.2880 H         1 UNK         0.0000
     38 H8         13.4200   -5.4790  -10.5740 H         1 UNK         0.0000
     39 H9         13.7200   -4.2240   -9.3480 H         1 UNK         0.0000
     40 H10         9.7010   -2.9630   -9.5780 H         1 UNK         0.0000
     41 H11         6.7870   -3.3720  -10.7920 H         1 UNK         0.0000
     42 H12         8.9930   -7.7550  -11.8630 H         1 UNK         0.0000
     43 H13         7.3550   -4.2960  -13.7670 H         1 UNK         0.0000
     44 H14         4.9140   -4.1800   -9.6490 H         1 UNK         0.0000
     45 H15         5.9520   -5.7380  -15.1840 H         1 UNK         0.0000
     46 H16         6.0600   -8.1830  -14.9450 H         1 UNK         0.0000
     47 H17         4.2860   -7.1990   -9.8410 H         1 UNK         0.0000
     48 H18         5.9460   -3.5990   -7.2070 H         1 UNK         0.0000
     49 H19         3.3420   -8.2920   -5.8380 H         1 UNK         0.0000
     50 H20         3.3070   -8.7690   -8.2240 H         1 UNK         0.0000
     51 H21         3.9610   -6.7860   -3.9740 H         1 UNK         0.0000
     52 H22         5.9710   -3.1310   -4.8150 H         1 UNK         0.0000
     53 H23         4.9880   -4.7120   -3.2120 H         1 UNK         0.0000
     54 H24         8.0150  -10.0490  -13.9400 H         1 UNK         0.0000
     55 H25         7.2110   -9.9420  -12.4680 H         1 UNK         0.0000
@<TRIPOS>BOND
     1    1   17 2
     2    2    3 1
     3    2   13 1
     4    2   14 1
     5    3    8 2
     6    4   13 1
     7    4   17 am
     8    4   41 1
     9    5   17 am
    10    5   18 1
    11    5   44 1
    12    6   20 1
    13    6   54 1
    14    6   55 1
    15    7    8 1
    16    7    9 1
    17    7   10 1
    18    7   11 1
    19    8   12 1
    20    9   31 1
    21    9   32 1
    22    9   33 1
    23   10   34 1
    24   10   35 1
    25   10   36 1
    26   11   37 1
    27   11   38 1
    28   11   39 1
    29   12   13 2
    30   12   40 1
    31   14   15 ar
    32   14   16 ar
    33   15   20 ar
    34   15   42 1
    35   16   22 ar
    36   16   43 1
    37   18   19 ar
    38   18   24 ar
    39   19   21 ar
    40   19   25 ar
    41   20   23 ar
    42   21   26 ar
    43   21   28 ar
    44   22   23 ar
    45   22   45 1
    46   23   46 1
    47   24   27 ar
    48   24   47 1
    49   25   29 ar
    50   25   48 1
    51   26   27 ar
    52   26   49 1
    53   27   50 1
    54   28   30 ar
    55   28   51 1
    56   29   30 ar
    57   29   52 1
    58   30   53 1
